00257001.cdx
  Mrv0541 06272400352D          

 39 43  0  0  0  0            999 V2000
   -2.1126   -0.2062    0.0000 C   0  0  0  0  0  0  0  0  0  0  0  0
   -2.1126   -1.0313    0.0000 C   0  0  0  0  0  0  0  0  0  0  0  0
   -1.3981   -1.4437    0.0000 C   0  0  0  0  0  0  0  0  0  0  0  0
   -0.6836   -1.0313    0.0000 C   0  0  0  0  0  0  0  0  0  0  0  0
   -0.6836   -0.2062    0.0000 C   0  0  0  0  0  0  0  0  0  0  0  0
   -1.3981    0.2062    0.0000 C   0  0  0  0  0  0  0  0  0  0  0  0
   -0.6836   -1.8563    0.0000 C   0  0  0  0  0  0  0  0  0  0  0  0
    0.0308   -2.2687    0.0000 C   0  0  0  0  0  0  0  0  0  0  0  0
    0.7453   -1.8563    0.0000 N   0  0  0  0  0  0  0  0  0  0  0  0
    0.7453   -1.0313    0.0000 C   0  0  0  0  0  0  0  0  0  0  0  0
    0.0308   -0.6187    0.0000 C   0  0  0  0  0  0  0  0  0  0  0  0
    1.4598   -2.2687    0.0000 C   0  0  0  0  0  0  0  0  0  0  0  0
    2.1742   -1.8563    0.0000 C   0  0  0  0  0  0  0  0  0  0  0  0
    1.4598   -3.0938    0.0000 O   0  0  0  0  0  0  0  0  0  0  0  0
    2.8887   -2.2687    0.0000 C   0  0  0  0  0  0  0  0  0  0  0  0
    3.6032   -1.8563    0.0000 C   0  0  0  0  0  0  0  0  0  0  0  0
    3.6032   -1.0313    0.0000 N   0  0  0  0  0  0  0  0  0  0  0  0
    2.8887   -0.6187    0.0000 C   0  0  0  0  0  0  0  0  0  0  0  0
    2.1742   -1.0313    0.0000 C   0  0  0  0  0  0  0  0  0  0  0  0
    2.8887    0.2062    0.0000 C   0  0  0  0  0  0  0  0  0  0  0  0
   -1.3981    1.0313    0.0000 O   0  0  0  0  0  0  0  0  0  0  0  0
   -2.8972    0.0487    0.0000 N   0  0  0  0  0  0  0  0  0  0  0  0
   -3.3821   -0.6187    0.0000 C   0  0  0  0  0  0  0  0  0  0  0  0
   -2.8972   -1.2862    0.0000 S   0  0  0  0  0  0  0  0  0  0  0  0
   -4.2071   -0.6187    0.0000 C   0  0  0  0  0  0  0  0  0  0  0  0
   -4.6196    0.0957    0.0000 C   0  0  0  0  0  0  0  0  0  0  0  0
   -4.6196   -1.3332    0.0000 C   0  0  0  0  0  0  0  0  0  0  0  0
   -5.0321   -0.6187    0.0000 C   0  0  0  0  0  0  0  0  0  0  0  0
    3.6032    0.6188    0.0000 C   0  0  0  0  0  0  0  0  0  0  0  0
    3.6032    1.4438    0.0000 C   0  0  0  0  0  0  0  0  0  0  0  0
    2.8887    1.8563    0.0000 C   0  0  0  0  0  0  0  0  0  0  0  0
    2.1742    1.4438    0.0000 C   0  0  0  0  0  0  0  0  0  0  0  0
    2.1742    0.6188    0.0000 C   0  0  0  0  0  0  0  0  0  0  0  0
    4.3177   -2.2687    0.0000 N   0  0  0  0  0  0  0  0  0  0  0  0
    5.0321   -1.8563    0.0000 C   0  0  0  0  0  0  0  0  0  0  0  0
    4.3177   -3.0938    0.0000 C   0  0  0  0  0  0  0  0  0  0  0  0
    2.8887    2.6812    0.0000 C   0  0  0  0  0  0  0  0  0  0  0  0
    2.1742    3.0938    0.0000 N   0  0  0  0  0  0  0  0  0  0  0  0
    3.6032    3.0938    0.0000 O   0  0  0  0  0  0  0  0  0  0  0  0
  1  2  4  0  0  0  0
  2  3  1  0  0  0  0
  3  4  1  0  0  0  0
  4  5  1  0  0  0  0
  5  6  1  0  0  0  0
  6  1  1  0  0  0  0
  4  7  1  0  0  0  0
  7  8  1  0  0  0  0
  8  9  1  0  0  0  0
  9 10  1  0  0  0  0
 10 11  1  0  0  0  0
 11  4  1  0  0  0  0
  9 12  1  0  0  0  0
 12 13  1  0  0  0  0
 12 14  2  0  0  0  0
 13 15  4  0  0  0  0
 15 16  4  0  0  0  0
 16 17  4  0  0  0  0
 17 18  4  0  0  0  0
 18 19  4  0  0  0  0
 19 13  4  0  0  0  0
 18 20  1  0  0  0  0
  6 21  2  0  0  0  0
  1 22  4  0  0  0  0
 22 23  4  0  0  0  0
 23 24  4  0  0  0  0
 24  2  4  0  0  0  0
 23 25  1  0  0  0  0
 25 26  1  0  0  0  0
 25 27  1  0  0  0  0
 25 28  1  0  0  0  0
 20 29  4  0  0  0  0
 29 30  4  0  0  0  0
 30 31  4  0  0  0  0
 31 32  4  0  0  0  0
 32 33  4  0  0  0  0
 33 20  4  0  0  0  0
 16 34  1  0  0  0  0
 34 35  1  0  0  0  0
 34 36  1  0  0  0  0
 31 37  1  0  0  0  0
 37 38  1  0  0  0  0
 37 39  2  0  0  0  0
M  END
> <From>
www.bindingDB.org

> <BindingDB Reactant_set_id>
1397223

> <Ligand InChI>
InChI=1S/C30H35N5O3S/c1-29(2,3)28-33-25-22(36)16-30(17-23(25)39-28)10-12-35(13-11-30)27(38)20-14-21(32-24(15-20)34(4)5)18-6-8-19(9-7-18)26(31)37/h6-9,14-15H,10-13,16-17H2,1-5H3,(H2,31,37)

> <Ligand InChI Key>
CJSPWBXQZGERJN-UHFFFAOYSA-N

> <BindingDB MonomerID>
663841

> <BindingDB Ligand Name>
US20240109915, Example 22

> <Target Name>
Activating signal cointegrator 1 complex subunit 1

> <Target Source Organism According to Curator or DataSource>


> <Ki (nM)>


> <IC50 (nM)>
 0.900

> <Kd (nM)>


> <EC50 (nM)>


> <kon (M-1-s-1)>


> <koff (s-1)>


> <pH>


> <Temp C>


> <Curation/DataSource>
US Patent

> <Article DOI>


> <BindingDB Entry DOI>
10.7270/Q2348QQ2

> <PMID>


> <PubChem AID>


> <Patent Number>
US20240109915

> <Authors>
Bagley, SW; Bootsma, AN; Choi, C; Dow, RL; Edmonds, DJ; Garcia-Irizarry, CN; Gerstenberger, BS; Ingle, G; O''Brien, JG; Parikh, MD; Rescourio, GC; Schmitt, DC

> <Institution>
Pfizer

> <Link to Ligand in BindingDB>
http://www.bindingdb.org/bind/chemsearch/marvin/MolStructure.jsp?monomerid=663841

> <Link to Ligand-Target Pair in BindingDB>
http://www.bindingdb.org/jsp/dbsearch/PrimarySearch_ki.jsp?energyterm=kJ/mole&tag=pol&polymerid=735&target=Activating+signal+cointegrator+1+complex+subunit+1&column=ki&startPg=0&Increment=50&submit=Search

> <Link to Ligand-Target Pair in BindingDB>
http://www.bindingdb.org/jsp/dbsearch/PrimarySearch_ki.jsp?energyterm=kJ/mole&tag=r21&monomerid=663841&enzyme=Activating+signal+cointegrator+1+complex+subunit+1&column=ki&startPg=0&Increment=50&submit=Search

> <Ligand HET ID in PDB>


> <PDB ID(s) for Ligand-Target Complex>


> <PubChem CID>


> <PubChem SID>


> <ChEBI ID of Ligand>


> <ChEMBL ID of Ligand>


> <DrugBank ID of Ligand>


> <IUPHAR_GRAC ID of Ligand>


> <KEGG ID of Ligand>


> <ZINC ID of Ligand>


> <Number of Protein Chains in Target (bigger than 1 implies a multichain complex)>
1

> <BindingDB Target Chain Sequence>
MEVLRPQLIRIDGRNYRKNPVQEQTYQHEEDEEDFYQGSMECADEPCDAYEVEQTPQGFRSTLRAPSLLYNLIHLNTSNDCGFQKITLDCQNIYTWKSRHIVGKRGDTRKKIEMETKTSISIPKPGQDGEIVITGQHRNGVISARTRIDVLLDTFRRKQPFTHFLAFFLNEVEVQEGFLRFQEEVLAKCSMDHGVDSSIFQNPKKLHLTIGMLVLLSEEEIQQTCEMLQQCKEEFINDISGGKPLEVEMAGIEYMNDDPGMVDVLYAKVHMKDGSNRLQELVDRVLERFQASGLIVKEWNSVKLHATVMNTLFRKDPNAEGRYNLYTAEGKYIFKERESFDGRNILKSFALLPRLEYNDAISAHCNLCLPGSSDSPASASQVAGITGVSDAYSQSLPGKS

> <PDB ID(s) of Target Chain>


> <UniProt (SwissProt) Recommended Name of Target Chain>
Activating signal cointegrator 1 complex subunit 1

> <UniProt (SwissProt) Entry Name of Target Chain>
ASCC1_HUMAN

> <UniProt (SwissProt) Primary ID of Target Chain>
Q8N9N2

> <UniProt (SwissProt) Secondary ID(s) of Target Chain>
Q5SW06 Q5SW07 Q96EI8 Q9Y307

> <UniProt (SwissProt) Alternative ID(s) of Target Chain>


> <UniProt (TrEMBL) Submitted Name of Target Chain>


> <UniProt (TrEMBL) Entry Name of Target Chain>


> <UniProt (TrEMBL) Primary ID of Target Chain>


> <UniProt (TrEMBL) Secondary ID(s) of Target Chain>


> <UniProt (TrEMBL) Alternative ID(s) of Target Chain>


$$$$
00269001.cdx
  Mrv0541 06272400352D          

 32 36  0  0  0  0            999 V2000
   -1.7553    0.8250    0.0000 C   0  0  0  0  0  0  0  0  0  0  0  0
   -1.7553    0.0000    0.0000 C   0  0  0  0  0  0  0  0  0  0  0  0
   -1.0409   -0.4125    0.0000 C   0  0  0  0  0  0  0  0  0  0  0  0
   -0.3264    0.0000    0.0000 C   0  0  0  0  0  0  0  0  0  0  0  0
   -0.3264    0.8250    0.0000 C   0  0  0  0  0  0  0  0  0  0  0  0
   -1.0409    1.2375    0.0000 C   0  0  0  0  0  0  0  0  0  0  0  0
   -0.3264   -0.8250    0.0000 C   0  0  0  0  0  0  0  0  0  0  0  0
    0.3881   -1.2375    0.0000 C   0  0  0  0  0  0  0  0  0  0  0  0
    1.1025   -0.8250    0.0000 N   0  0  0  0  0  0  0  0  0  0  0  0
    1.1025    0.0000    0.0000 C   0  0  0  0  0  0  0  0  0  0  0  0
    0.3881    0.4125    0.0000 C   0  0  0  0  0  0  0  0  0  0  0  0
    1.8170   -1.2375    0.0000 C   0  0  0  0  0  0  0  0  0  0  0  0
    2.5315   -0.8250    0.0000 C   0  0  0  0  0  0  0  0  0  0  0  0
    1.8170   -2.0625    0.0000 O   0  0  0  0  0  0  0  0  0  0  0  0
    3.2459   -1.2375    0.0000 C   0  0  0  0  0  0  0  0  0  0  0  0
    3.9604   -0.8250    0.0000 C   0  0  0  0  0  0  0  0  0  0  0  0
    3.9604    0.0000    0.0000 C   0  0  0  0  0  0  0  0  0  0  0  0
    3.2459    0.4125    0.0000 C   0  0  0  0  0  0  0  0  0  0  0  0
    2.5315    0.0000    0.0000 C   0  0  0  0  0  0  0  0  0  0  0  0
   -1.0409    2.0625    0.0000 O   0  0  0  0  0  0  0  0  0  0  0  0
   -2.5400    1.0799    0.0000 N   0  0  0  0  0  0  0  0  0  0  0  0
   -3.0249    0.4125    0.0000 C   0  0  0  0  0  0  0  0  0  0  0  0
   -2.5400   -0.2549    0.0000 S   0  0  0  0  0  0  0  0  0  0  0  0
   -3.8499    0.4125    0.0000 C   0  0  0  0  0  0  0  0  0  0  0  0
   -4.2624    1.1270    0.0000 C   0  0  0  0  0  0  0  0  0  0  0  0
   -4.2624   -0.3020    0.0000 C   0  0  0  0  0  0  0  0  0  0  0  0
   -4.6749    0.4125    0.0000 C   0  0  0  0  0  0  0  0  0  0  0  0
    3.0744    1.2195    0.0000 C   0  0  0  0  0  0  0  0  0  0  0  0
    2.2539    1.3057    0.0000 N   0  0  0  0  0  0  0  0  0  0  0  0
    1.9184    0.5520    0.0000 N   0  0  0  0  0  0  0  0  0  0  0  0
    4.6749    0.4125    0.0000 Cl  0  0  0  0  0  0  0  0  0  0  0  0
    4.6749   -1.2375    0.0000 C   0  0  0  0  0  0  0  0  0  0  0  0
  1  2  4  0  0  0  0
  2  3  1  0  0  0  0
  3  4  1  0  0  0  0
  4  5  1  0  0  0  0
  5  6  1  0  0  0  0
  6  1  1  0  0  0  0
  4  7  1  0  0  0  0
  7  8  1  0  0  0  0
  8  9  1  0  0  0  0
  9 10  1  0  0  0  0
 10 11  1  0  0  0  0
 11  4  1  0  0  0  0
  9 12  1  0  0  0  0
 12 13  1  0  0  0  0
 12 14  2  0  0  0  0
 13 15  4  0  0  0  0
 15 16  4  0  0  0  0
 16 17  4  0  0  0  0
 17 18  4  0  0  0  0
 18 19  4  0  0  0  0
 19 13  4  0  0  0  0
  6 20  2  0  0  0  0
  1 21  4  0  0  0  0
 21 22  4  0  0  0  0
 22 23  4  0  0  0  0
 23  2  4  0  0  0  0
 22 24  1  0  0  0  0
 24 25  1  0  0  0  0
 24 26  1  0  0  0  0
 24 27  1  0  0  0  0
 18 28  4  0  0  0  0
 28 29  4  0  0  0  0
 29 30  4  0  0  0  0
 30 19  4  0  0  0  0
 17 31  1  0  0  0  0
 16 32  1  0  0  0  0
M  STY  1   1 DAT
M  SAL   1  1  30
M  SDT   1 MRV_IMPLICIT_H                                        
M  SDD   1     0.0000    0.0000    DR    ALL  0       0  
M  SED   1 IMPL_H1
M  END
> <From>
www.bindingDB.org

> <BindingDB Reactant_set_id>
1397234

> <Ligand InChI>
InChI=1S/C24H27ClN4O2S/c1-13-9-14(19-15(18(13)25)12-26-28-19)21(31)29-7-5-24(6-8-29)10-16(30)20-17(11-24)32-22(27-20)23(2,3)4/h9,12H,5-8,10-11H2,1-4H3,(H,26,28)

> <Ligand InChI Key>
DKLGSKYWMKRRNF-UHFFFAOYSA-N

> <BindingDB MonomerID>
663852

> <BindingDB Ligand Name>
US20240109915, Example 34

> <Target Name>
Activating signal cointegrator 1 complex subunit 1

> <Target Source Organism According to Curator or DataSource>


> <Ki (nM)>


> <IC50 (nM)>
 1.30

> <Kd (nM)>


> <EC50 (nM)>


> <kon (M-1-s-1)>


> <koff (s-1)>


> <pH>


> <Temp C>


> <Curation/DataSource>
US Patent

> <Article DOI>


> <BindingDB Entry DOI>
10.7270/Q2348QQ2

> <PMID>


> <PubChem AID>


> <Patent Number>
US20240109915

> <Authors>
Bagley, SW; Bootsma, AN; Choi, C; Dow, RL; Edmonds, DJ; Garcia-Irizarry, CN; Gerstenberger, BS; Ingle, G; O''Brien, JG; Parikh, MD; Rescourio, GC; Schmitt, DC

> <Institution>
Pfizer

> <Link to Ligand in BindingDB>
http://www.bindingdb.org/bind/chemsearch/marvin/MolStructure.jsp?monomerid=663852

> <Link to Ligand-Target Pair in BindingDB>
http://www.bindingdb.org/jsp/dbsearch/PrimarySearch_ki.jsp?energyterm=kJ/mole&tag=pol&polymerid=735&target=Activating+signal+cointegrator+1+complex+subunit+1&column=ki&startPg=0&Increment=50&submit=Search

> <Link to Ligand-Target Pair in BindingDB>
http://www.bindingdb.org/jsp/dbsearch/PrimarySearch_ki.jsp?energyterm=kJ/mole&tag=r21&monomerid=663852&enzyme=Activating+signal+cointegrator+1+complex+subunit+1&column=ki&startPg=0&Increment=50&submit=Search

> <Ligand HET ID in PDB>


> <PDB ID(s) for Ligand-Target Complex>


> <PubChem CID>


> <PubChem SID>


> <ChEBI ID of Ligand>


> <ChEMBL ID of Ligand>


> <DrugBank ID of Ligand>


> <IUPHAR_GRAC ID of Ligand>


> <KEGG ID of Ligand>


> <ZINC ID of Ligand>


> <Number of Protein Chains in Target (bigger than 1 implies a multichain complex)>
1

> <BindingDB Target Chain Sequence>
MEVLRPQLIRIDGRNYRKNPVQEQTYQHEEDEEDFYQGSMECADEPCDAYEVEQTPQGFRSTLRAPSLLYNLIHLNTSNDCGFQKITLDCQNIYTWKSRHIVGKRGDTRKKIEMETKTSISIPKPGQDGEIVITGQHRNGVISARTRIDVLLDTFRRKQPFTHFLAFFLNEVEVQEGFLRFQEEVLAKCSMDHGVDSSIFQNPKKLHLTIGMLVLLSEEEIQQTCEMLQQCKEEFINDISGGKPLEVEMAGIEYMNDDPGMVDVLYAKVHMKDGSNRLQELVDRVLERFQASGLIVKEWNSVKLHATVMNTLFRKDPNAEGRYNLYTAEGKYIFKERESFDGRNILKSFALLPRLEYNDAISAHCNLCLPGSSDSPASASQVAGITGVSDAYSQSLPGKS

> <PDB ID(s) of Target Chain>


> <UniProt (SwissProt) Recommended Name of Target Chain>
Activating signal cointegrator 1 complex subunit 1

> <UniProt (SwissProt) Entry Name of Target Chain>
ASCC1_HUMAN

> <UniProt (SwissProt) Primary ID of Target Chain>
Q8N9N2

> <UniProt (SwissProt) Secondary ID(s) of Target Chain>
Q5SW06 Q5SW07 Q96EI8 Q9Y307

> <UniProt (SwissProt) Alternative ID(s) of Target Chain>


> <UniProt (TrEMBL) Submitted Name of Target Chain>


> <UniProt (TrEMBL) Entry Name of Target Chain>


> <UniProt (TrEMBL) Primary ID of Target Chain>


> <UniProt (TrEMBL) Secondary ID(s) of Target Chain>


> <UniProt (TrEMBL) Alternative ID(s) of Target Chain>


$$$$
00272001.cdx
  Mrv0541 06272400352D          

 33 37  0  0  0  0            999 V2000
   -3.3821    0.4125    0.0000 C   0  0  0  0  0  0  0  0  0  0  0  0
   -2.8972    1.0799    0.0000 N   0  0  0  0  0  0  0  0  0  0  0  0
   -4.2071    0.4125    0.0000 C   0  0  0  0  0  0  0  0  0  0  0  0
   -2.8972   -0.2549    0.0000 S   0  0  0  0  0  0  0  0  0  0  0  0
   -4.6196   -0.3020    0.0000 C   0  0  0  0  0  0  0  0  0  0  0  0
   -4.6196    1.1270    0.0000 C   0  0  0  0  0  0  0  0  0  0  0  0
   -5.0321    0.4125    0.0000 C   0  0  0  0  0  0  0  0  0  0  0  0
   -1.3981   -0.4125    0.0000 C   0  0  0  0  0  0  0  0  0  0  0  0
   -2.1126    0.0000    0.0000 C   0  0  0  0  0  0  0  0  0  0  0  0
   -2.1126    0.8250    0.0000 C   0  0  0  0  0  0  0  0  0  0  0  0
   -0.6836    0.0000    0.0000 C   0  0  0  0  0  0  0  0  0  0  0  0
   -1.3981    1.2375    0.0000 C   0  0  0  0  0  0  0  0  0  0  0  0
   -1.3981    2.0625    0.0000 O   0  0  0  0  0  0  0  0  0  0  0  0
   -0.6836    0.8250    0.0000 C   0  0  0  0  0  0  0  0  0  0  0  0
    0.0308    0.4125    0.0000 C   0  0  0  0  0  0  0  0  0  0  0  0
    0.7453    0.0000    0.0000 C   0  0  0  0  0  0  0  0  0  0  0  0
    0.7453   -0.8250    0.0000 N   0  0  0  0  0  0  0  0  0  0  0  0
   -0.6836   -0.8250    0.0000 C   0  0  0  0  0  0  0  0  0  0  0  0
    0.0308   -1.2375    0.0000 C   0  0  0  0  0  0  0  0  0  0  0  0
    3.6032    0.0000    0.0000 C   0  0  0  0  0  0  0  0  0  0  0  0
    2.8887    0.4125    0.0000 C   0  0  0  0  0  0  0  0  0  0  0  0
    2.1742    0.0000    0.0000 C   0  0  0  0  0  0  0  0  0  0  0  0
    2.7172    1.2195    0.0000 C   0  0  0  0  0  0  0  0  0  0  0  0
    1.8967    1.3057    0.0000 N   0  0  0  0  0  0  0  0  0  0  0  0
    4.3177    0.4125    0.0000 Cl  0  0  0  0  0  0  0  0  0  0  0  0
    3.6032   -0.8250    0.0000 C   0  0  0  0  0  0  0  0  0  0  0  0
    4.3177   -1.2375    0.0000 O   0  0  0  0  0  0  0  0  0  0  0  0
    2.8887   -1.2375    0.0000 C   0  0  0  0  0  0  0  0  0  0  0  0
    2.1742   -0.8250    0.0000 C   0  0  0  0  0  0  0  0  0  0  0  0
    1.4598   -1.2375    0.0000 C   0  0  0  0  0  0  0  0  0  0  0  0
    1.4598   -2.0625    0.0000 O   0  0  0  0  0  0  0  0  0  0  0  0
    1.5611    0.5520    0.0000 N   0  0  0  0  0  0  0  0  0  0  0  0
    5.0321   -0.8250    0.0000 C   0  0  0  0  0  0  0  0  0  0  0  0
  1  2  4  0  0  0  0
  1  3  1  0  0  0  0
  1  4  4  0  0  0  0
  2 10  4  0  0  0  0
  3  5  1  0  0  0  0
  3  6  1  0  0  0  0
  3  7  1  0  0  0  0
  4  9  4  0  0  0  0
  8  9  1  0  0  0  0
  8 11  1  0  0  0  0
  9 10  4  0  0  0  0
 10 12  1  0  0  0  0
 11 14  1  0  0  0  0
 11 15  1  0  0  0  0
 11 18  1  0  0  0  0
 12 13  2  0  0  0  0
 12 14  1  0  0  0  0
 15 16  1  0  0  0  0
 16 17  1  0  0  0  0
 17 19  1  0  0  0  0
 17 30  1  0  0  0  0
 18 19  1  0  0  0  0
 20 21  4  0  0  0  0
 20 25  1  0  0  0  0
 20 26  4  0  0  0  0
 21 22  4  0  0  0  0
 21 23  4  0  0  0  0
 22 29  4  0  0  0  0
 22 32  4  0  0  0  0
 23 24  4  0  0  0  0
 24 32  4  0  0  0  0
 26 27  1  0  0  0  0
 26 28  4  0  0  0  0
 28 29  4  0  0  0  0
 29 30  1  0  0  0  0
 30 31  2  0  0  0  0
 27 33  1  0  0  0  0
M  STY  1   1 DAT
M  SAL   1  1  32
M  SDT   1 MRV_IMPLICIT_H                                        
M  SDD   1     0.0000    0.0000    DR    ALL  0       0  
M  SED   1 IMPL_H1
M  END
> <From>
www.bindingDB.org

> <BindingDB Reactant_set_id>
1397237

> <Ligand InChI>
InChI=1S/C24H27ClN4O3S/c1-23(2,3)22-27-20-15(30)10-24(11-17(20)33-22)5-7-29(8-6-24)21(31)13-9-16(32-4)18(25)14-12-26-28-19(13)14/h9,12H,5-8,10-11H2,1-4H3,(H,26,28)

> <Ligand InChI Key>
AVJHCSXOLORRNA-UHFFFAOYSA-N

> <BindingDB MonomerID>
663855

> <BindingDB Ligand Name>
US20240109915, Example 37

> <Target Name>
Activating signal cointegrator 1 complex subunit 1

> <Target Source Organism According to Curator or DataSource>


> <Ki (nM)>


> <IC50 (nM)>
 1.30

> <Kd (nM)>


> <EC50 (nM)>


> <kon (M-1-s-1)>


> <koff (s-1)>


> <pH>


> <Temp C>


> <Curation/DataSource>
US Patent

> <Article DOI>


> <BindingDB Entry DOI>
10.7270/Q2348QQ2

> <PMID>


> <PubChem AID>


> <Patent Number>
US20240109915

> <Authors>
Bagley, SW; Bootsma, AN; Choi, C; Dow, RL; Edmonds, DJ; Garcia-Irizarry, CN; Gerstenberger, BS; Ingle, G; O''Brien, JG; Parikh, MD; Rescourio, GC; Schmitt, DC

> <Institution>
Pfizer

> <Link to Ligand in BindingDB>
http://www.bindingdb.org/bind/chemsearch/marvin/MolStructure.jsp?monomerid=663855

> <Link to Ligand-Target Pair in BindingDB>
http://www.bindingdb.org/jsp/dbsearch/PrimarySearch_ki.jsp?energyterm=kJ/mole&tag=pol&polymerid=735&target=Activating+signal+cointegrator+1+complex+subunit+1&column=ki&startPg=0&Increment=50&submit=Search

> <Link to Ligand-Target Pair in BindingDB>
http://www.bindingdb.org/jsp/dbsearch/PrimarySearch_ki.jsp?energyterm=kJ/mole&tag=r21&monomerid=663855&enzyme=Activating+signal+cointegrator+1+complex+subunit+1&column=ki&startPg=0&Increment=50&submit=Search

> <Ligand HET ID in PDB>


> <PDB ID(s) for Ligand-Target Complex>


> <PubChem CID>


> <PubChem SID>


> <ChEBI ID of Ligand>


> <ChEMBL ID of Ligand>


> <DrugBank ID of Ligand>


> <IUPHAR_GRAC ID of Ligand>


> <KEGG ID of Ligand>


> <ZINC ID of Ligand>


> <Number of Protein Chains in Target (bigger than 1 implies a multichain complex)>
1

> <BindingDB Target Chain Sequence>
MEVLRPQLIRIDGRNYRKNPVQEQTYQHEEDEEDFYQGSMECADEPCDAYEVEQTPQGFRSTLRAPSLLYNLIHLNTSNDCGFQKITLDCQNIYTWKSRHIVGKRGDTRKKIEMETKTSISIPKPGQDGEIVITGQHRNGVISARTRIDVLLDTFRRKQPFTHFLAFFLNEVEVQEGFLRFQEEVLAKCSMDHGVDSSIFQNPKKLHLTIGMLVLLSEEEIQQTCEMLQQCKEEFINDISGGKPLEVEMAGIEYMNDDPGMVDVLYAKVHMKDGSNRLQELVDRVLERFQASGLIVKEWNSVKLHATVMNTLFRKDPNAEGRYNLYTAEGKYIFKERESFDGRNILKSFALLPRLEYNDAISAHCNLCLPGSSDSPASASQVAGITGVSDAYSQSLPGKS

> <PDB ID(s) of Target Chain>


> <UniProt (SwissProt) Recommended Name of Target Chain>
Activating signal cointegrator 1 complex subunit 1

> <UniProt (SwissProt) Entry Name of Target Chain>
ASCC1_HUMAN

> <UniProt (SwissProt) Primary ID of Target Chain>
Q8N9N2

> <UniProt (SwissProt) Secondary ID(s) of Target Chain>
Q5SW06 Q5SW07 Q96EI8 Q9Y307

> <UniProt (SwissProt) Alternative ID(s) of Target Chain>


> <UniProt (TrEMBL) Submitted Name of Target Chain>


> <UniProt (TrEMBL) Entry Name of Target Chain>


> <UniProt (TrEMBL) Primary ID of Target Chain>


> <UniProt (TrEMBL) Secondary ID(s) of Target Chain>


> <UniProt (TrEMBL) Alternative ID(s) of Target Chain>


$$$$
00275001.cdx
  Mrv0541 06272400352D          

 35 39  0  0  0  0            999 V2000
   -4.0966    0.4125    0.0000 C   0  0  0  0  0  0  0  0  0  0  0  0
   -3.6117    1.0799    0.0000 N   0  0  0  0  0  0  0  0  0  0  0  0
   -4.9216    0.4125    0.0000 C   0  0  0  0  0  0  0  0  0  0  0  0
   -3.6117   -0.2549    0.0000 S   0  0  0  0  0  0  0  0  0  0  0  0
   -5.3341    1.1270    0.0000 C   0  0  0  0  0  0  0  0  0  0  0  0
   -5.7466    0.4125    0.0000 C   0  0  0  0  0  0  0  0  0  0  0  0
   -5.3341   -0.3020    0.0000 C   0  0  0  0  0  0  0  0  0  0  0  0
   -2.8271    0.0000    0.0000 C   0  0  0  0  0  0  0  0  0  0  0  0
   -2.8271    0.8250    0.0000 C   0  0  0  0  0  0  0  0  0  0  0  0
   -2.1126   -0.4125    0.0000 C   0  0  0  0  0  0  0  0  0  0  0  0
   -2.1126    1.2375    0.0000 C   0  0  0  0  0  0  0  0  0  0  0  0
   -2.1126    2.0625    0.0000 O   0  0  0  0  0  0  0  0  0  0  0  0
   -1.3981    0.8250    0.0000 C   0  0  0  0  0  0  0  0  0  0  0  0
   -1.3981    0.0000    0.0000 C   0  0  0  0  0  0  0  0  0  0  0  0
   -0.6836    0.4125    0.0000 C   0  0  0  0  0  0  0  0  0  0  0  0
    0.0308    0.0000    0.0000 C   0  0  0  0  0  0  0  0  0  0  0  0
    0.0308   -0.8250    0.0000 N   0  0  0  0  0  0  0  0  0  0  0  0
   -1.3981   -0.8250    0.0000 C   0  0  0  0  0  0  0  0  0  0  0  0
   -0.6836   -1.2375    0.0000 C   0  0  0  0  0  0  0  0  0  0  0  0
    2.8887   -0.8250    0.0000 C   0  0  0  0  0  0  0  0  0  0  0  0
    3.6032   -1.2375    0.0000 N   0  0  0  0  0  0  0  0  0  0  0  0
    2.8887    0.0000    0.0000 C   0  0  0  0  0  0  0  0  0  0  0  0
    2.1742   -1.2375    0.0000 C   0  0  0  0  0  0  0  0  0  0  0  0
    1.4598   -0.8250    0.0000 C   0  0  0  0  0  0  0  0  0  0  0  0
    1.4598    0.0000    0.0000 C   0  0  0  0  0  0  0  0  0  0  0  0
    2.1742    0.4125    0.0000 C   0  0  0  0  0  0  0  0  0  0  0  0
    0.7453   -1.2375    0.0000 C   0  0  0  0  0  0  0  0  0  0  0  0
    2.1742    1.2375    0.0000 O   0  0  0  0  0  0  0  0  0  0  0  0
    0.7453   -2.0625    0.0000 O   0  0  0  0  0  0  0  0  0  0  0  0
    3.6032    0.4125    0.0000 C   0  0  0  0  0  0  0  0  0  0  0  0
    4.3177    0.0000    0.0000 C   0  0  0  0  0  0  0  0  0  0  0  0
    4.3177   -0.8250    0.0000 C   0  0  0  0  0  0  0  0  0  0  0  0
    5.0321   -1.2375    0.0000 N   0  0  0  0  0  0  0  0  0  0  0  0
    5.7466   -0.8250    0.0000 C   0  0  0  0  0  0  0  0  0  0  0  0
    1.4598    1.6500    0.0000 C   0  0  0  0  0  0  0  0  0  0  0  0
  1  2  4  0  0  0  0
  1  3  1  0  0  0  0
  1  4  4  0  0  0  0
  2  9  4  0  0  0  0
  3  5  1  0  0  0  0
  3  6  1  0  0  0  0
  3  7  1  0  0  0  0
  4  8  4  0  0  0  0
  8  9  4  0  0  0  0
  8 10  1  0  0  0  0
  9 11  1  0  0  0  0
 10 14  1  0  0  0  0
 11 12  2  0  0  0  0
 11 13  1  0  0  0  0
 13 14  1  0  0  0  0
 14 15  1  0  0  0  0
 14 18  1  0  0  0  0
 15 16  1  0  0  0  0
 16 17  1  0  0  0  0
 17 19  1  0  0  0  0
 17 27  1  0  0  0  0
 18 19  1  0  0  0  0
 20 21  4  0  0  0  0
 20 22  4  0  0  0  0
 20 23  4  0  0  0  0
 21 32  4  0  0  0  0
 22 26  4  0  0  0  0
 22 30  4  0  0  0  0
 23 24  4  0  0  0  0
 24 25  4  0  0  0  0
 24 27  1  0  0  0  0
 25 26  4  0  0  0  0
 26 28  1  0  0  0  0
 27 29  2  0  0  0  0
 30 31  4  0  0  0  0
 31 32  4  0  0  0  0
 32 33  1  0  0  0  0
 33 34  1  0  0  0  0
 28 35  1  0  0  0  0
M  END
> <From>
www.bindingDB.org

> <BindingDB Reactant_set_id>
1397240

> <Ligand InChI>
InChI=1S/C27H32N4O3S/c1-26(2,3)25-30-23-19(32)14-27(15-21(23)35-25)8-10-31(11-9-27)24(33)16-12-18-17(20(13-16)34-5)6-7-22(28-4)29-18/h6-7,12-13H,8-11,14-15H2,1-5H3,(H,28,29)

> <Ligand InChI Key>
KSNSQBRZIXKYRK-UHFFFAOYSA-N

> <BindingDB MonomerID>
663858

> <BindingDB Ligand Name>
US20240109915, Example 40

> <Target Name>
Activating signal cointegrator 1 complex subunit 1

> <Target Source Organism According to Curator or DataSource>


> <Ki (nM)>


> <IC50 (nM)>
 1.50

> <Kd (nM)>


> <EC50 (nM)>


> <kon (M-1-s-1)>


> <koff (s-1)>


> <pH>


> <Temp C>


> <Curation/DataSource>
US Patent

> <Article DOI>


> <BindingDB Entry DOI>
10.7270/Q2348QQ2

> <PMID>


> <PubChem AID>


> <Patent Number>
US20240109915

> <Authors>
Bagley, SW; Bootsma, AN; Choi, C; Dow, RL; Edmonds, DJ; Garcia-Irizarry, CN; Gerstenberger, BS; Ingle, G; O''Brien, JG; Parikh, MD; Rescourio, GC; Schmitt, DC

> <Institution>
Pfizer

> <Link to Ligand in BindingDB>
http://www.bindingdb.org/bind/chemsearch/marvin/MolStructure.jsp?monomerid=663858

> <Link to Ligand-Target Pair in BindingDB>
http://www.bindingdb.org/jsp/dbsearch/PrimarySearch_ki.jsp?energyterm=kJ/mole&tag=pol&polymerid=735&target=Activating+signal+cointegrator+1+complex+subunit+1&column=ki&startPg=0&Increment=50&submit=Search

> <Link to Ligand-Target Pair in BindingDB>
http://www.bindingdb.org/jsp/dbsearch/PrimarySearch_ki.jsp?energyterm=kJ/mole&tag=r21&monomerid=663858&enzyme=Activating+signal+cointegrator+1+complex+subunit+1&column=ki&startPg=0&Increment=50&submit=Search

> <Ligand HET ID in PDB>


> <PDB ID(s) for Ligand-Target Complex>


> <PubChem CID>


> <PubChem SID>


> <ChEBI ID of Ligand>


> <ChEMBL ID of Ligand>


> <DrugBank ID of Ligand>


> <IUPHAR_GRAC ID of Ligand>


> <KEGG ID of Ligand>


> <ZINC ID of Ligand>


> <Number of Protein Chains in Target (bigger than 1 implies a multichain complex)>
1

> <BindingDB Target Chain Sequence>
MEVLRPQLIRIDGRNYRKNPVQEQTYQHEEDEEDFYQGSMECADEPCDAYEVEQTPQGFRSTLRAPSLLYNLIHLNTSNDCGFQKITLDCQNIYTWKSRHIVGKRGDTRKKIEMETKTSISIPKPGQDGEIVITGQHRNGVISARTRIDVLLDTFRRKQPFTHFLAFFLNEVEVQEGFLRFQEEVLAKCSMDHGVDSSIFQNPKKLHLTIGMLVLLSEEEIQQTCEMLQQCKEEFINDISGGKPLEVEMAGIEYMNDDPGMVDVLYAKVHMKDGSNRLQELVDRVLERFQASGLIVKEWNSVKLHATVMNTLFRKDPNAEGRYNLYTAEGKYIFKERESFDGRNILKSFALLPRLEYNDAISAHCNLCLPGSSDSPASASQVAGITGVSDAYSQSLPGKS

> <PDB ID(s) of Target Chain>


> <UniProt (SwissProt) Recommended Name of Target Chain>
Activating signal cointegrator 1 complex subunit 1

> <UniProt (SwissProt) Entry Name of Target Chain>
ASCC1_HUMAN

> <UniProt (SwissProt) Primary ID of Target Chain>
Q8N9N2

> <UniProt (SwissProt) Secondary ID(s) of Target Chain>
Q5SW06 Q5SW07 Q96EI8 Q9Y307

> <UniProt (SwissProt) Alternative ID(s) of Target Chain>


> <UniProt (TrEMBL) Submitted Name of Target Chain>


> <UniProt (TrEMBL) Entry Name of Target Chain>


> <UniProt (TrEMBL) Primary ID of Target Chain>


> <UniProt (TrEMBL) Secondary ID(s) of Target Chain>


> <UniProt (TrEMBL) Alternative ID(s) of Target Chain>


$$$$
00332001.cdx
  Mrv0541 06272400352D          

 34 38  0  0  0  0            999 V2000
   -5.0321    0.4125    0.0000 C   0  0  0  0  0  0  0  0  0  0  0  0
   -4.2071    0.4125    0.0000 C   0  0  0  0  0  0  0  0  0  0  0  0
   -4.6196    1.1270    0.0000 C   0  0  0  0  0  0  0  0  0  0  0  0
   -4.6196   -0.3020    0.0000 C   0  0  0  0  0  0  0  0  0  0  0  0
   -3.3821    0.4125    0.0000 C   0  0  0  0  0  0  0  0  0  0  0  0
   -2.8972    1.0799    0.0000 N   0  0  0  0  0  0  0  0  0  0  0  0
   -2.8972   -0.2549    0.0000 S   0  0  0  0  0  0  0  0  0  0  0  0
   -1.3981   -0.4125    0.0000 C   0  0  0  0  0  0  0  0  0  0  0  0
   -0.6836    0.0000    0.0000 C   0  0  0  0  0  0  0  0  0  0  0  0
   -0.6836   -0.8250    0.0000 C   0  0  0  0  0  0  0  0  0  0  0  0
   -2.1126    0.0000    0.0000 C   0  0  0  0  0  0  0  0  0  0  0  0
   -2.1126    0.8250    0.0000 C   0  0  0  0  0  0  0  0  0  0  0  0
   -1.3981    1.2375    0.0000 C   0  0  0  0  0  0  0  0  0  0  0  0
   -1.3981    2.0625    0.0000 O   0  0  0  0  0  0  0  0  0  0  0  0
   -0.6836    0.8250    0.0000 C   0  0  0  0  0  0  0  0  0  0  0  0
    0.0308    0.4125    0.0000 C   0  0  0  0  0  0  0  0  0  0  0  0
    0.7453    0.0000    0.0000 C   0  0  0  0  0  0  0  0  0  0  0  0
    0.7453   -0.8250    0.0000 N   0  0  0  0  0  0  0  0  0  0  0  0
    0.0308   -1.2375    0.0000 C   0  0  0  0  0  0  0  0  0  0  0  0
    1.4598    0.4125    0.0000 N   0  0  0  0  0  0  0  0  0  0  0  0
    1.4598    1.2375    0.0000 C   0  0  0  0  0  0  0  0  0  0  0  0
    1.4598   -1.2375    0.0000 C   0  0  0  0  0  0  0  0  0  0  0  0
    1.4598   -2.0625    0.0000 O   0  0  0  0  0  0  0  0  0  0  0  0
    2.1742   -0.8250    0.0000 C   0  0  0  0  0  0  0  0  0  0  0  0
    2.1742    0.0000    0.0000 C   0  0  0  0  0  0  0  0  0  0  0  0
    2.8887    0.4125    0.0000 N   0  0  0  0  0  0  0  0  0  0  0  0
    2.8887   -1.2375    0.0000 C   0  0  0  0  0  0  0  0  0  0  0  0
    3.6032   -0.8250    0.0000 C   0  0  0  0  0  0  0  0  0  0  0  0
    3.6032    0.0000    0.0000 C   0  0  0  0  0  0  0  0  0  0  0  0
    4.3177    0.4125    0.0000 C   0  0  0  0  0  0  0  0  0  0  0  0
    4.3177    1.2375    0.0000 C   0  0  0  0  0  0  0  0  0  0  0  0
    5.0321    0.0000    0.0000 C   0  0  0  0  0  0  0  0  0  0  0  0
    5.0321   -0.8250    0.0000 C   0  0  0  0  0  0  0  0  0  0  0  0
    4.3177   -1.2375    0.0000 C   0  0  0  0  0  0  0  0  0  0  0  0
  1  2  1  0  0  0  0
  2  3  1  0  0  0  0
  2  4  1  0  0  0  0
  2  5  1  0  0  0  0
  5  6  4  0  0  0  0
  5  7  4  0  0  0  0
  6 12  4  0  0  0  0
  7 11  4  0  0  0  0
  8  9  1  0  0  0  0
  8 11  1  0  0  0  0
  9 10  1  0  0  0  0
  9 15  1  0  0  0  0
  9 16  1  0  0  0  0
 10 19  1  0  0  0  0
 11 12  4  0  0  0  0
 12 13  1  0  0  0  0
 13 14  2  0  0  0  0
 13 15  1  0  0  0  0
 16 17  1  0  0  0  0
 17 18  1  0  0  0  0
 18 19  1  0  0  0  0
 18 22  1  0  0  0  0
 20 21  1  0  0  0  0
 20 25  1  0  0  0  0
 22 23  2  0  0  0  0
 22 24  1  0  0  0  0
 24 25  4  0  0  0  0
 24 27  4  0  0  0  0
 25 26  4  0  0  0  0
 26 29  4  0  0  0  0
 27 28  4  0  0  0  0
 28 29  4  0  0  0  0
 28 34  4  0  0  0  0
 29 30  4  0  0  0  0
 30 31  1  0  0  0  0
 30 32  4  0  0  0  0
 32 33  4  0  0  0  0
 33 34  4  0  0  0  0
M  END
> <From>
www.bindingDB.org

> <BindingDB Reactant_set_id>
1397294

> <Ligand InChI>
InChI=1S/C27H32N4O2S/c1-16-7-6-8-17-13-18(23(28-5)29-21(16)17)24(33)31-11-9-27(10-12-31)14-19(32)22-20(15-27)34-25(30-22)26(2,3)4/h6-8,13H,9-12,14-15H2,1-5H3,(H,28,29)

> <Ligand InChI Key>
CPJGGABKNIYFOA-UHFFFAOYSA-N

> <BindingDB MonomerID>
663912

> <BindingDB Ligand Name>
US20240109915, Example 97

> <Target Name>
Activating signal cointegrator 1 complex subunit 1

> <Target Source Organism According to Curator or DataSource>


> <Ki (nM)>


> <IC50 (nM)>
 1.80

> <Kd (nM)>


> <EC50 (nM)>


> <kon (M-1-s-1)>


> <koff (s-1)>


> <pH>


> <Temp C>


> <Curation/DataSource>
US Patent

> <Article DOI>


> <BindingDB Entry DOI>
10.7270/Q2348QQ2

> <PMID>


> <PubChem AID>


> <Patent Number>
US20240109915

> <Authors>
Bagley, SW; Bootsma, AN; Choi, C; Dow, RL; Edmonds, DJ; Garcia-Irizarry, CN; Gerstenberger, BS; Ingle, G; O''Brien, JG; Parikh, MD; Rescourio, GC; Schmitt, DC

> <Institution>
Pfizer

> <Link to Ligand in BindingDB>
http://www.bindingdb.org/bind/chemsearch/marvin/MolStructure.jsp?monomerid=663912

> <Link to Ligand-Target Pair in BindingDB>
http://www.bindingdb.org/jsp/dbsearch/PrimarySearch_ki.jsp?energyterm=kJ/mole&tag=pol&polymerid=735&target=Activating+signal+cointegrator+1+complex+subunit+1&column=ki&startPg=0&Increment=50&submit=Search

> <Link to Ligand-Target Pair in BindingDB>
http://www.bindingdb.org/jsp/dbsearch/PrimarySearch_ki.jsp?energyterm=kJ/mole&tag=r21&monomerid=663912&enzyme=Activating+signal+cointegrator+1+complex+subunit+1&column=ki&startPg=0&Increment=50&submit=Search

> <Ligand HET ID in PDB>


> <PDB ID(s) for Ligand-Target Complex>


> <PubChem CID>


> <PubChem SID>


> <ChEBI ID of Ligand>


> <ChEMBL ID of Ligand>


> <DrugBank ID of Ligand>


> <IUPHAR_GRAC ID of Ligand>


> <KEGG ID of Ligand>


> <ZINC ID of Ligand>


> <Number of Protein Chains in Target (bigger than 1 implies a multichain complex)>
1

> <BindingDB Target Chain Sequence>
MEVLRPQLIRIDGRNYRKNPVQEQTYQHEEDEEDFYQGSMECADEPCDAYEVEQTPQGFRSTLRAPSLLYNLIHLNTSNDCGFQKITLDCQNIYTWKSRHIVGKRGDTRKKIEMETKTSISIPKPGQDGEIVITGQHRNGVISARTRIDVLLDTFRRKQPFTHFLAFFLNEVEVQEGFLRFQEEVLAKCSMDHGVDSSIFQNPKKLHLTIGMLVLLSEEEIQQTCEMLQQCKEEFINDISGGKPLEVEMAGIEYMNDDPGMVDVLYAKVHMKDGSNRLQELVDRVLERFQASGLIVKEWNSVKLHATVMNTLFRKDPNAEGRYNLYTAEGKYIFKERESFDGRNILKSFALLPRLEYNDAISAHCNLCLPGSSDSPASASQVAGITGVSDAYSQSLPGKS

> <PDB ID(s) of Target Chain>


> <UniProt (SwissProt) Recommended Name of Target Chain>
Activating signal cointegrator 1 complex subunit 1

> <UniProt (SwissProt) Entry Name of Target Chain>
ASCC1_HUMAN

> <UniProt (SwissProt) Primary ID of Target Chain>
Q8N9N2

> <UniProt (SwissProt) Secondary ID(s) of Target Chain>
Q5SW06 Q5SW07 Q96EI8 Q9Y307

> <UniProt (SwissProt) Alternative ID(s) of Target Chain>


> <UniProt (TrEMBL) Submitted Name of Target Chain>


> <UniProt (TrEMBL) Entry Name of Target Chain>


> <UniProt (TrEMBL) Primary ID of Target Chain>


> <UniProt (TrEMBL) Secondary ID(s) of Target Chain>


> <UniProt (TrEMBL) Alternative ID(s) of Target Chain>


$$$$
00249001.cdx
  Mrv0541 06272400352D          

 35 39  0  0  0  0            999 V2000
   -2.0329    0.8250    0.0000 C   0  0  0  0  0  0  0  0  0  0  0  0
   -2.0329    0.0000    0.0000 C   0  0  0  0  0  0  0  0  0  0  0  0
   -1.3184   -0.4125    0.0000 C   0  0  0  0  0  0  0  0  0  0  0  0
   -0.6039    0.0000    0.0000 C   0  0  0  0  0  0  0  0  0  0  0  0
   -0.6039    0.8250    0.0000 C   0  0  0  0  0  0  0  0  0  0  0  0
   -1.3184    1.2375    0.0000 C   0  0  0  0  0  0  0  0  0  0  0  0
   -0.6039   -0.8250    0.0000 C   0  0  0  0  0  0  0  0  0  0  0  0
    0.1105   -1.2375    0.0000 C   0  0  0  0  0  0  0  0  0  0  0  0
    0.8250   -0.8250    0.0000 N   0  0  0  0  0  0  0  0  0  0  0  0
    0.8250    0.0000    0.0000 C   0  0  0  0  0  0  0  0  0  0  0  0
    0.1105    0.4125    0.0000 C   0  0  0  0  0  0  0  0  0  0  0  0
    1.5395   -1.2375    0.0000 C   0  0  0  0  0  0  0  0  0  0  0  0
    2.2539   -0.8250    0.0000 C   0  0  0  0  0  0  0  0  0  0  0  0
    1.5395   -2.0625    0.0000 O   0  0  0  0  0  0  0  0  0  0  0  0
    2.9684   -1.2375    0.0000 C   0  0  0  0  0  0  0  0  0  0  0  0
    3.6829   -0.8250    0.0000 C   0  0  0  0  0  0  0  0  0  0  0  0
    3.6829    0.0000    0.0000 C   0  0  0  0  0  0  0  0  0  0  0  0
    2.9684    0.4125    0.0000 C   0  0  0  0  0  0  0  0  0  0  0  0
    2.2539    0.0000    0.0000 C   0  0  0  0  0  0  0  0  0  0  0  0
    2.9684    1.2375    0.0000 O   0  0  0  0  0  0  0  0  0  0  0  0
   -1.3184    2.0625    0.0000 O   0  0  0  0  0  0  0  0  0  0  0  0
   -2.8175    1.0799    0.0000 N   0  0  0  0  0  0  0  0  0  0  0  0
   -3.3024    0.4125    0.0000 C   0  0  0  0  0  0  0  0  0  0  0  0
   -2.8175   -0.2549    0.0000 S   0  0  0  0  0  0  0  0  0  0  0  0
   -4.1274    0.4125    0.0000 C   0  0  0  0  0  0  0  0  0  0  0  0
    2.2539    1.6500    0.0000 C   0  0  0  0  0  0  0  0  0  0  0  0
    4.4675   -1.0799    0.0000 C   0  0  0  0  0  0  0  0  0  0  0  0
    4.9524   -0.4125    0.0000 N   0  0  0  0  0  0  0  0  0  0  0  0
    4.4675    0.2549    0.0000 N   0  0  0  0  0  0  0  0  0  0  0  0
    4.7224    1.0396    0.0000 C   0  0  0  0  0  0  0  0  0  0  0  0
    4.7224   -1.8646    0.0000 C   0  0  0  0  0  0  0  0  0  0  0  0
   -4.5399    1.1270    0.0000 C   0  0  0  0  0  0  0  0  0  0  0  0
   -4.5399   -0.3020    0.0000 C   0  0  0  0  0  0  0  0  0  0  0  0
   -4.9524    0.4125    0.0000 C   0  0  0  0  0  0  0  0  0  0  0  0
    1.5395    1.2375    0.0000 C   0  0  0  0  0  0  0  0  0  0  0  0
  1  2  4  0  0  0  0
  2  3  1  0  0  0  0
  3  4  1  0  0  0  0
  4  5  1  0  0  0  0
  5  6  1  0  0  0  0
  6  1  1  0  0  0  0
  4  7  1  0  0  0  0
  7  8  1  0  0  0  0
  8  9  1  0  0  0  0
  9 10  1  0  0  0  0
 10 11  1  0  0  0  0
 11  4  1  0  0  0  0
  9 12  1  0  0  0  0
 12 13  1  0  0  0  0
 12 14  2  0  0  0  0
 13 15  4  0  0  0  0
 15 16  4  0  0  0  0
 16 17  4  0  0  0  0
 17 18  4  0  0  0  0
 18 19  4  0  0  0  0
 19 13  4  0  0  0  0
 18 20  1  0  0  0  0
  6 21  2  0  0  0  0
  1 22  4  0  0  0  0
 22 23  4  0  0  0  0
 23 24  4  0  0  0  0
 24  2  4  0  0  0  0
 23 25  1  0  0  0  0
 20 26  1  0  0  0  0
 16 27  4  0  0  0  0
 27 28  4  0  0  0  0
 28 29  4  0  0  0  0
 29 17  4  0  0  0  0
 29 30  1  0  0  0  0
 27 31  1  0  0  0  0
 25 32  1  0  0  0  0
 25 33  1  0  0  0  0
 25 34  1  0  0  0  0
 26 35  1  0  0  0  0
M  END
> <From>
www.bindingDB.org

> <BindingDB Reactant_set_id>
1397215

> <Ligand InChI>
InChI=1S/C27H34N4O3S/c1-7-34-20-13-17(12-18-16(2)29-30(6)23(18)20)24(33)31-10-8-27(9-11-31)14-19(32)22-21(15-27)35-25(28-22)26(3,4)5/h12-13H,7-11,14-15H2,1-6H3

> <Ligand InChI Key>
YDEJDFWIPXRWCS-UHFFFAOYSA-N

> <BindingDB MonomerID>
663833

> <BindingDB Ligand Name>
US20240109915, Example 14

> <Target Name>
Activating signal cointegrator 1 complex subunit 1

> <Target Source Organism According to Curator or DataSource>


> <Ki (nM)>


> <IC50 (nM)>
 2.20

> <Kd (nM)>


> <EC50 (nM)>


> <kon (M-1-s-1)>


> <koff (s-1)>


> <pH>


> <Temp C>


> <Curation/DataSource>
US Patent

> <Article DOI>


> <BindingDB Entry DOI>
10.7270/Q2348QQ2

> <PMID>


> <PubChem AID>


> <Patent Number>
US20240109915

> <Authors>
Bagley, SW; Bootsma, AN; Choi, C; Dow, RL; Edmonds, DJ; Garcia-Irizarry, CN; Gerstenberger, BS; Ingle, G; O''Brien, JG; Parikh, MD; Rescourio, GC; Schmitt, DC

> <Institution>
Pfizer

> <Link to Ligand in BindingDB>
http://www.bindingdb.org/bind/chemsearch/marvin/MolStructure.jsp?monomerid=663833

> <Link to Ligand-Target Pair in BindingDB>
http://www.bindingdb.org/jsp/dbsearch/PrimarySearch_ki.jsp?energyterm=kJ/mole&tag=pol&polymerid=735&target=Activating+signal+cointegrator+1+complex+subunit+1&column=ki&startPg=0&Increment=50&submit=Search

> <Link to Ligand-Target Pair in BindingDB>
http://www.bindingdb.org/jsp/dbsearch/PrimarySearch_ki.jsp?energyterm=kJ/mole&tag=r21&monomerid=663833&enzyme=Activating+signal+cointegrator+1+complex+subunit+1&column=ki&startPg=0&Increment=50&submit=Search

> <Ligand HET ID in PDB>


> <PDB ID(s) for Ligand-Target Complex>


> <PubChem CID>


> <PubChem SID>


> <ChEBI ID of Ligand>


> <ChEMBL ID of Ligand>


> <DrugBank ID of Ligand>


> <IUPHAR_GRAC ID of Ligand>


> <KEGG ID of Ligand>


> <ZINC ID of Ligand>


> <Number of Protein Chains in Target (bigger than 1 implies a multichain complex)>
1

> <BindingDB Target Chain Sequence>
MEVLRPQLIRIDGRNYRKNPVQEQTYQHEEDEEDFYQGSMECADEPCDAYEVEQTPQGFRSTLRAPSLLYNLIHLNTSNDCGFQKITLDCQNIYTWKSRHIVGKRGDTRKKIEMETKTSISIPKPGQDGEIVITGQHRNGVISARTRIDVLLDTFRRKQPFTHFLAFFLNEVEVQEGFLRFQEEVLAKCSMDHGVDSSIFQNPKKLHLTIGMLVLLSEEEIQQTCEMLQQCKEEFINDISGGKPLEVEMAGIEYMNDDPGMVDVLYAKVHMKDGSNRLQELVDRVLERFQASGLIVKEWNSVKLHATVMNTLFRKDPNAEGRYNLYTAEGKYIFKERESFDGRNILKSFALLPRLEYNDAISAHCNLCLPGSSDSPASASQVAGITGVSDAYSQSLPGKS

> <PDB ID(s) of Target Chain>


> <UniProt (SwissProt) Recommended Name of Target Chain>
Activating signal cointegrator 1 complex subunit 1

> <UniProt (SwissProt) Entry Name of Target Chain>
ASCC1_HUMAN

> <UniProt (SwissProt) Primary ID of Target Chain>
Q8N9N2

> <UniProt (SwissProt) Secondary ID(s) of Target Chain>
Q5SW06 Q5SW07 Q96EI8 Q9Y307

> <UniProt (SwissProt) Alternative ID(s) of Target Chain>


> <UniProt (TrEMBL) Submitted Name of Target Chain>


> <UniProt (TrEMBL) Entry Name of Target Chain>


> <UniProt (TrEMBL) Primary ID of Target Chain>


> <UniProt (TrEMBL) Secondary ID(s) of Target Chain>


> <UniProt (TrEMBL) Alternative ID(s) of Target Chain>


$$$$
00287001.cdx
  Mrv0541 06272400352D          

 33 37  0  0  0  0            999 V2000
   -3.3821    0.4125    0.0000 C   0  0  0  0  0  0  0  0  0  0  0  0
   -2.8972    1.0799    0.0000 N   0  0  0  0  0  0  0  0  0  0  0  0
   -4.2071    0.4125    0.0000 C   0  0  0  0  0  0  0  0  0  0  0  0
   -2.8972   -0.2549    0.0000 S   0  0  0  0  0  0  0  0  0  0  0  0
   -5.0321    0.4125    0.0000 C   0  0  0  0  0  0  0  0  0  0  0  0
   -4.6196   -0.3020    0.0000 C   0  0  0  0  0  0  0  0  0  0  0  0
   -4.6196    1.1270    0.0000 C   0  0  0  0  0  0  0  0  0  0  0  0
   -0.6836    0.0000    0.0000 C   0  0  0  0  0  0  0  0  0  0  0  0
   -0.6836   -0.8250    0.0000 C   0  0  0  0  0  0  0  0  0  0  0  0
    0.0308   -1.2375    0.0000 C   0  0  0  0  0  0  0  0  0  0  0  0
   -1.3981   -0.4125    0.0000 C   0  0  0  0  0  0  0  0  0  0  0  0
   -2.1126    0.0000    0.0000 C   0  0  0  0  0  0  0  0  0  0  0  0
   -2.1126    0.8250    0.0000 C   0  0  0  0  0  0  0  0  0  0  0  0
   -1.3981    1.2375    0.0000 C   0  0  0  0  0  0  0  0  0  0  0  0
   -1.3981    2.0625    0.0000 O   0  0  0  0  0  0  0  0  0  0  0  0
   -0.6836    0.8250    0.0000 C   0  0  0  0  0  0  0  0  0  0  0  0
    0.0308    0.4125    0.0000 C   0  0  0  0  0  0  0  0  0  0  0  0
    0.7453    0.0000    0.0000 C   0  0  0  0  0  0  0  0  0  0  0  0
    0.7453   -0.8250    0.0000 N   0  0  0  0  0  0  0  0  0  0  0  0
    1.4598   -1.2375    0.0000 C   0  0  0  0  0  0  0  0  0  0  0  0
    2.1742   -0.8250    0.0000 C   0  0  0  0  0  0  0  0  0  0  0  0
    2.8887   -1.2375    0.0000 C   0  0  0  0  0  0  0  0  0  0  0  0
    1.4598   -2.0625    0.0000 O   0  0  0  0  0  0  0  0  0  0  0  0
    2.1742    0.0000    0.0000 C   0  0  0  0  0  0  0  0  0  0  0  0
    2.8887    0.4125    0.0000 C   0  0  0  0  0  0  0  0  0  0  0  0
    2.8887    1.2375    0.0000 C   0  0  0  0  0  0  0  0  0  0  0  0
    3.6032    0.0000    0.0000 C   0  0  0  0  0  0  0  0  0  0  0  0
    4.3177    0.4125    0.0000 C   0  0  0  0  0  0  0  0  0  0  0  0
    5.0321    0.0000    0.0000 C   0  0  0  0  0  0  0  0  0  0  0  0
    5.0321   -0.8250    0.0000 C   0  0  0  0  0  0  0  0  0  0  0  0
    4.3177   -1.2375    0.0000 C   0  0  0  0  0  0  0  0  0  0  0  0
    3.6032   -0.8250    0.0000 C   0  0  0  0  0  0  0  0  0  0  0  0
    2.8887   -2.0625    0.0000 O   0  0  0  0  0  0  0  0  0  0  0  0
  1  2  4  0  0  0  0
  1  3  1  0  0  0  0
  1  4  4  0  0  0  0
  2 13  4  0  0  0  0
  3  5  1  0  0  0  0
  3  6  1  0  0  0  0
  3  7  1  0  0  0  0
  4 12  4  0  0  0  0
  8  9  1  0  0  0  0
  8 11  1  0  0  0  0
  8 16  1  0  0  0  0
  8 17  1  0  0  0  0
  9 10  1  0  0  0  0
 10 19  1  0  0  0  0
 11 12  1  0  0  0  0
 12 13  4  0  0  0  0
 13 14  1  0  0  0  0
 14 15  2  0  0  0  0
 14 16  1  0  0  0  0
 17 18  1  0  0  0  0
 18 19  1  0  0  0  0
 19 20  1  0  0  0  0
 20 21  1  0  0  0  0
 20 23  2  0  0  0  0
 21 22  4  0  0  0  0
 21 24  4  0  0  0  0
 22 32  4  0  0  0  0
 22 33  1  0  0  0  0
 24 25  4  0  0  0  0
 25 26  1  0  0  0  0
 25 27  4  0  0  0  0
 27 28  4  0  0  0  0
 27 32  4  0  0  0  0
 28 29  4  0  0  0  0
 29 30  4  0  0  0  0
 30 31  4  0  0  0  0
 31 32  4  0  0  0  0
M  END
> <From>
www.bindingDB.org

> <BindingDB Reactant_set_id>
1397251

> <Ligand InChI>
InChI=1S/C27H30N2O3S/c1-16-13-19(23(31)18-8-6-5-7-17(16)18)24(32)29-11-9-27(10-12-29)14-20(30)22-21(15-27)33-25(28-22)26(2,3)4/h5-8,13,31H,9-12,14-15H2,1-4H3

> <Ligand InChI Key>
USSNKFUOXHAWGC-UHFFFAOYSA-N

> <BindingDB MonomerID>
663869

> <BindingDB Ligand Name>
US20240109915, Example 52

> <Target Name>
Activating signal cointegrator 1 complex subunit 1

> <Target Source Organism According to Curator or DataSource>


> <Ki (nM)>


> <IC50 (nM)>
 2.40

> <Kd (nM)>


> <EC50 (nM)>


> <kon (M-1-s-1)>


> <koff (s-1)>


> <pH>


> <Temp C>


> <Curation/DataSource>
US Patent

> <Article DOI>


> <BindingDB Entry DOI>
10.7270/Q2348QQ2

> <PMID>


> <PubChem AID>


> <Patent Number>
US20240109915

> <Authors>
Bagley, SW; Bootsma, AN; Choi, C; Dow, RL; Edmonds, DJ; Garcia-Irizarry, CN; Gerstenberger, BS; Ingle, G; O''Brien, JG; Parikh, MD; Rescourio, GC; Schmitt, DC

> <Institution>
Pfizer

> <Link to Ligand in BindingDB>
http://www.bindingdb.org/bind/chemsearch/marvin/MolStructure.jsp?monomerid=663869

> <Link to Ligand-Target Pair in BindingDB>
http://www.bindingdb.org/jsp/dbsearch/PrimarySearch_ki.jsp?energyterm=kJ/mole&tag=pol&polymerid=735&target=Activating+signal+cointegrator+1+complex+subunit+1&column=ki&startPg=0&Increment=50&submit=Search

> <Link to Ligand-Target Pair in BindingDB>
http://www.bindingdb.org/jsp/dbsearch/PrimarySearch_ki.jsp?energyterm=kJ/mole&tag=r21&monomerid=663869&enzyme=Activating+signal+cointegrator+1+complex+subunit+1&column=ki&startPg=0&Increment=50&submit=Search

> <Ligand HET ID in PDB>


> <PDB ID(s) for Ligand-Target Complex>


> <PubChem CID>


> <PubChem SID>


> <ChEBI ID of Ligand>


> <ChEMBL ID of Ligand>


> <DrugBank ID of Ligand>


> <IUPHAR_GRAC ID of Ligand>


> <KEGG ID of Ligand>


> <ZINC ID of Ligand>


> <Number of Protein Chains in Target (bigger than 1 implies a multichain complex)>
1

> <BindingDB Target Chain Sequence>
MEVLRPQLIRIDGRNYRKNPVQEQTYQHEEDEEDFYQGSMECADEPCDAYEVEQTPQGFRSTLRAPSLLYNLIHLNTSNDCGFQKITLDCQNIYTWKSRHIVGKRGDTRKKIEMETKTSISIPKPGQDGEIVITGQHRNGVISARTRIDVLLDTFRRKQPFTHFLAFFLNEVEVQEGFLRFQEEVLAKCSMDHGVDSSIFQNPKKLHLTIGMLVLLSEEEIQQTCEMLQQCKEEFINDISGGKPLEVEMAGIEYMNDDPGMVDVLYAKVHMKDGSNRLQELVDRVLERFQASGLIVKEWNSVKLHATVMNTLFRKDPNAEGRYNLYTAEGKYIFKERESFDGRNILKSFALLPRLEYNDAISAHCNLCLPGSSDSPASASQVAGITGVSDAYSQSLPGKS

> <PDB ID(s) of Target Chain>


> <UniProt (SwissProt) Recommended Name of Target Chain>
Activating signal cointegrator 1 complex subunit 1

> <UniProt (SwissProt) Entry Name of Target Chain>
ASCC1_HUMAN

> <UniProt (SwissProt) Primary ID of Target Chain>
Q8N9N2

> <UniProt (SwissProt) Secondary ID(s) of Target Chain>
Q5SW06 Q5SW07 Q96EI8 Q9Y307

> <UniProt (SwissProt) Alternative ID(s) of Target Chain>


> <UniProt (TrEMBL) Submitted Name of Target Chain>


> <UniProt (TrEMBL) Entry Name of Target Chain>


> <UniProt (TrEMBL) Primary ID of Target Chain>


> <UniProt (TrEMBL) Secondary ID(s) of Target Chain>


> <UniProt (TrEMBL) Alternative ID(s) of Target Chain>


$$$$
00327001.cdx
  Mrv0541 06272400352D          

 32 36  0  0  0  0            999 V2000
   -4.9524    0.4125    0.0000 C   0  0  0  0  0  0  0  0  0  0  0  0
   -4.1274    0.4125    0.0000 C   0  0  0  0  0  0  0  0  0  0  0  0
   -4.5399    1.1270    0.0000 C   0  0  0  0  0  0  0  0  0  0  0  0
   -4.5399   -0.3020    0.0000 C   0  0  0  0  0  0  0  0  0  0  0  0
   -3.3024    0.4125    0.0000 C   0  0  0  0  0  0  0  0  0  0  0  0
   -2.8175    1.0799    0.0000 N   0  0  0  0  0  0  0  0  0  0  0  0
   -2.8175   -0.2549    0.0000 S   0  0  0  0  0  0  0  0  0  0  0  0
   -0.6039    0.0000    0.0000 C   0  0  0  0  0  0  0  0  0  0  0  0
   -0.6039   -0.8250    0.0000 C   0  0  0  0  0  0  0  0  0  0  0  0
    0.1105   -1.2375    0.0000 C   0  0  0  0  0  0  0  0  0  0  0  0
   -1.3184   -0.4125    0.0000 C   0  0  0  0  0  0  0  0  0  0  0  0
   -2.0329    0.0000    0.0000 C   0  0  0  0  0  0  0  0  0  0  0  0
   -2.0329    0.8250    0.0000 C   0  0  0  0  0  0  0  0  0  0  0  0
   -1.3184    1.2375    0.0000 C   0  0  0  0  0  0  0  0  0  0  0  0
   -1.3184    2.0625    0.0000 O   0  0  0  0  0  0  0  0  0  0  0  0
   -0.6039    0.8250    0.0000 C   0  0  0  0  0  0  0  0  0  0  0  0
    0.1105    0.4125    0.0000 C   0  0  0  0  0  0  0  0  0  0  0  0
    0.8250    0.0000    0.0000 C   0  0  0  0  0  0  0  0  0  0  0  0
    0.8250   -0.8250    0.0000 N   0  0  0  0  0  0  0  0  0  0  0  0
    3.6829   -0.8250    0.0000 C   0  0  0  0  0  0  0  0  0  0  0  0
    4.4675   -1.0799    0.0000 C   0  0  0  0  0  0  0  0  0  0  0  0
    4.7224   -1.8646    0.0000 C   0  0  0  0  0  0  0  0  0  0  0  0
    2.9684   -1.2375    0.0000 C   0  0  0  0  0  0  0  0  0  0  0  0
    2.2539   -0.8250    0.0000 C   0  0  0  0  0  0  0  0  0  0  0  0
    1.5395   -1.2375    0.0000 C   0  0  0  0  0  0  0  0  0  0  0  0
    1.5395   -2.0625    0.0000 O   0  0  0  0  0  0  0  0  0  0  0  0
    2.2539    0.0000    0.0000 C   0  0  0  0  0  0  0  0  0  0  0  0
    2.9684    0.4125    0.0000 C   0  0  0  0  0  0  0  0  0  0  0  0
    2.9684    1.2375    0.0000 C   0  0  0  0  0  0  0  0  0  0  0  0
    3.6829    0.0000    0.0000 C   0  0  0  0  0  0  0  0  0  0  0  0
    4.9524   -0.4125    0.0000 C   0  0  0  0  0  0  0  0  0  0  0  0
    4.4675    0.2549    0.0000 N   0  0  0  0  0  0  0  0  0  0  0  0
  1  2  1  0  0  0  0
  2  3  1  0  0  0  0
  2  4  1  0  0  0  0
  2  5  1  0  0  0  0
  5  6  4  0  0  0  0
  5  7  4  0  0  0  0
  6 13  4  0  0  0  0
  7 12  4  0  0  0  0
  8  9  1  0  0  0  0
  8 11  1  0  0  0  0
  8 16  1  0  0  0  0
  8 17  1  0  0  0  0
  9 10  1  0  0  0  0
 10 19  1  0  0  0  0
 11 12  1  0  0  0  0
 12 13  4  0  0  0  0
 13 14  1  0  0  0  0
 14 15  2  0  0  0  0
 14 16  1  0  0  0  0
 17 18  1  0  0  0  0
 18 19  1  0  0  0  0
 19 25  1  0  0  0  0
 20 21  4  0  0  0  0
 20 23  4  0  0  0  0
 20 30  4  0  0  0  0
 21 22  1  0  0  0  0
 21 31  4  0  0  0  0
 23 24  4  0  0  0  0
 24 25  1  0  0  0  0
 24 27  4  0  0  0  0
 25 26  2  0  0  0  0
 27 28  4  0  0  0  0
 28 29  1  0  0  0  0
 28 30  4  0  0  0  0
 30 32  4  0  0  0  0
 31 32  4  0  0  0  0
M  STY  1   1 DAT
M  SAL   1  1  32
M  SDT   1 MRV_IMPLICIT_H                                        
M  SDD   1     0.0000    0.0000    DR    ALL  0       0  
M  SED   1 IMPL_H1
M  END
> <From>
www.bindingDB.org

> <BindingDB Reactant_set_id>
1397289

> <Ligand InChI>
InChI=1S/C26H31N3O2S/c1-15-10-17(11-18-16(2)14-27-21(15)18)23(31)29-8-6-26(7-9-29)12-19(30)22-20(13-26)32-24(28-22)25(3,4)5/h10-11,14,27H,6-9,12-13H2,1-5H3

> <Ligand InChI Key>
VQQOFXVZSBVKBP-UHFFFAOYSA-N

> <BindingDB MonomerID>
663907

> <BindingDB Ligand Name>
US20240109915, Example 92

> <Target Name>
Activating signal cointegrator 1 complex subunit 1

> <Target Source Organism According to Curator or DataSource>


> <Ki (nM)>


> <IC50 (nM)>
 2.40

> <Kd (nM)>


> <EC50 (nM)>


> <kon (M-1-s-1)>


> <koff (s-1)>


> <pH>


> <Temp C>


> <Curation/DataSource>
US Patent

> <Article DOI>


> <BindingDB Entry DOI>
10.7270/Q2348QQ2

> <PMID>


> <PubChem AID>


> <Patent Number>
US20240109915

> <Authors>
Bagley, SW; Bootsma, AN; Choi, C; Dow, RL; Edmonds, DJ; Garcia-Irizarry, CN; Gerstenberger, BS; Ingle, G; O''Brien, JG; Parikh, MD; Rescourio, GC; Schmitt, DC

> <Institution>
Pfizer

> <Link to Ligand in BindingDB>
http://www.bindingdb.org/bind/chemsearch/marvin/MolStructure.jsp?monomerid=663907

> <Link to Ligand-Target Pair in BindingDB>
http://www.bindingdb.org/jsp/dbsearch/PrimarySearch_ki.jsp?energyterm=kJ/mole&tag=pol&polymerid=735&target=Activating+signal+cointegrator+1+complex+subunit+1&column=ki&startPg=0&Increment=50&submit=Search

> <Link to Ligand-Target Pair in BindingDB>
http://www.bindingdb.org/jsp/dbsearch/PrimarySearch_ki.jsp?energyterm=kJ/mole&tag=r21&monomerid=663907&enzyme=Activating+signal+cointegrator+1+complex+subunit+1&column=ki&startPg=0&Increment=50&submit=Search

> <Ligand HET ID in PDB>


> <PDB ID(s) for Ligand-Target Complex>


> <PubChem CID>


> <PubChem SID>


> <ChEBI ID of Ligand>


> <ChEMBL ID of Ligand>


> <DrugBank ID of Ligand>


> <IUPHAR_GRAC ID of Ligand>


> <KEGG ID of Ligand>


> <ZINC ID of Ligand>


> <Number of Protein Chains in Target (bigger than 1 implies a multichain complex)>
1

> <BindingDB Target Chain Sequence>
MEVLRPQLIRIDGRNYRKNPVQEQTYQHEEDEEDFYQGSMECADEPCDAYEVEQTPQGFRSTLRAPSLLYNLIHLNTSNDCGFQKITLDCQNIYTWKSRHIVGKRGDTRKKIEMETKTSISIPKPGQDGEIVITGQHRNGVISARTRIDVLLDTFRRKQPFTHFLAFFLNEVEVQEGFLRFQEEVLAKCSMDHGVDSSIFQNPKKLHLTIGMLVLLSEEEIQQTCEMLQQCKEEFINDISGGKPLEVEMAGIEYMNDDPGMVDVLYAKVHMKDGSNRLQELVDRVLERFQASGLIVKEWNSVKLHATVMNTLFRKDPNAEGRYNLYTAEGKYIFKERESFDGRNILKSFALLPRLEYNDAISAHCNLCLPGSSDSPASASQVAGITGVSDAYSQSLPGKS

> <PDB ID(s) of Target Chain>


> <UniProt (SwissProt) Recommended Name of Target Chain>
Activating signal cointegrator 1 complex subunit 1

> <UniProt (SwissProt) Entry Name of Target Chain>
ASCC1_HUMAN

> <UniProt (SwissProt) Primary ID of Target Chain>
Q8N9N2

> <UniProt (SwissProt) Secondary ID(s) of Target Chain>
Q5SW06 Q5SW07 Q96EI8 Q9Y307

> <UniProt (SwissProt) Alternative ID(s) of Target Chain>


> <UniProt (TrEMBL) Submitted Name of Target Chain>


> <UniProt (TrEMBL) Entry Name of Target Chain>


> <UniProt (TrEMBL) Primary ID of Target Chain>


> <UniProt (TrEMBL) Secondary ID(s) of Target Chain>


> <UniProt (TrEMBL) Alternative ID(s) of Target Chain>


$$$$
00270001.cdx
  Mrv0541 06272400352D          

 32 36  0  0  0  0            999 V2000
   -3.0249    0.4125    0.0000 C   0  0  0  0  0  0  0  0  0  0  0  0
   -2.5400    1.0799    0.0000 N   0  0  0  0  0  0  0  0  0  0  0  0
   -3.8499    0.4125    0.0000 C   0  0  0  0  0  0  0  0  0  0  0  0
   -2.5400   -0.2549    0.0000 S   0  0  0  0  0  0  0  0  0  0  0  0
   -4.2624   -0.3020    0.0000 C   0  0  0  0  0  0  0  0  0  0  0  0
   -4.2624    1.1270    0.0000 C   0  0  0  0  0  0  0  0  0  0  0  0
   -4.6749    0.4125    0.0000 C   0  0  0  0  0  0  0  0  0  0  0  0
   -1.0409   -0.4125    0.0000 C   0  0  0  0  0  0  0  0  0  0  0  0
   -1.7553    0.0000    0.0000 C   0  0  0  0  0  0  0  0  0  0  0  0
   -1.7553    0.8250    0.0000 C   0  0  0  0  0  0  0  0  0  0  0  0
   -0.3264    0.0000    0.0000 C   0  0  0  0  0  0  0  0  0  0  0  0
   -1.0409    1.2375    0.0000 C   0  0  0  0  0  0  0  0  0  0  0  0
   -1.0409    2.0625    0.0000 O   0  0  0  0  0  0  0  0  0  0  0  0
   -0.3264    0.8250    0.0000 C   0  0  0  0  0  0  0  0  0  0  0  0
    0.3881    0.4125    0.0000 C   0  0  0  0  0  0  0  0  0  0  0  0
    1.1025    0.0000    0.0000 C   0  0  0  0  0  0  0  0  0  0  0  0
    1.1025   -0.8250    0.0000 N   0  0  0  0  0  0  0  0  0  0  0  0
   -0.3264   -0.8250    0.0000 C   0  0  0  0  0  0  0  0  0  0  0  0
    0.3881   -1.2375    0.0000 C   0  0  0  0  0  0  0  0  0  0  0  0
    3.9604    0.0000    0.0000 C   0  0  0  0  0  0  0  0  0  0  0  0
    3.2459    0.4125    0.0000 C   0  0  0  0  0  0  0  0  0  0  0  0
    2.5315    0.0000    0.0000 C   0  0  0  0  0  0  0  0  0  0  0  0
    3.0744    1.2195    0.0000 C   0  0  0  0  0  0  0  0  0  0  0  0
    2.2539    1.3057    0.0000 N   0  0  0  0  0  0  0  0  0  0  0  0
    4.6749    0.4125    0.0000 C   0  0  0  0  0  0  0  0  0  0  0  0
    3.9604   -0.8250    0.0000 C   0  0  0  0  0  0  0  0  0  0  0  0
    4.6749   -1.2375    0.0000 C   0  0  0  0  0  0  0  0  0  0  0  0
    3.2459   -1.2375    0.0000 C   0  0  0  0  0  0  0  0  0  0  0  0
    2.5315   -0.8250    0.0000 C   0  0  0  0  0  0  0  0  0  0  0  0
    1.8170   -1.2375    0.0000 C   0  0  0  0  0  0  0  0  0  0  0  0
    1.8170   -2.0625    0.0000 O   0  0  0  0  0  0  0  0  0  0  0  0
    1.9184    0.5520    0.0000 N   0  0  0  0  0  0  0  0  0  0  0  0
  1  2  4  0  0  0  0
  1  3  1  0  0  0  0
  1  4  4  0  0  0  0
  2 10  4  0  0  0  0
  3  5  1  0  0  0  0
  3  6  1  0  0  0  0
  3  7  1  0  0  0  0
  4  9  4  0  0  0  0
  8  9  1  0  0  0  0
  8 11  1  0  0  0  0
  9 10  4  0  0  0  0
 10 12  1  0  0  0  0
 11 14  1  0  0  0  0
 11 15  1  0  0  0  0
 11 18  1  0  0  0  0
 12 13  2  0  0  0  0
 12 14  1  0  0  0  0
 15 16  1  0  0  0  0
 16 17  1  0  0  0  0
 17 19  1  0  0  0  0
 17 30  1  0  0  0  0
 18 19  1  0  0  0  0
 20 21  4  0  0  0  0
 20 25  1  0  0  0  0
 20 26  4  0  0  0  0
 21 22  4  0  0  0  0
 21 23  4  0  0  0  0
 22 29  4  0  0  0  0
 22 32  4  0  0  0  0
 23 24  4  0  0  0  0
 24 32  4  0  0  0  0
 26 27  1  0  0  0  0
 26 28  4  0  0  0  0
 28 29  4  0  0  0  0
 29 30  1  0  0  0  0
 30 31  2  0  0  0  0
M  STY  1   1 DAT
M  SAL   1  1  32
M  SDT   1 MRV_IMPLICIT_H                                        
M  SDD   1     0.0000    0.0000    DR    ALL  0       0  
M  SED   1 IMPL_H1
M  END
> <From>
www.bindingDB.org

> <BindingDB Reactant_set_id>
1397235

> <Ligand InChI>
InChI=1S/C25H30N4O2S/c1-14-10-16(20-17(15(14)2)13-26-28-20)22(31)29-8-6-25(7-9-29)11-18(30)21-19(12-25)32-23(27-21)24(3,4)5/h10,13H,6-9,11-12H2,1-5H3,(H,26,28)

> <Ligand InChI Key>
HGKVZZCEYRMZPO-UHFFFAOYSA-N

> <BindingDB MonomerID>
663853

> <BindingDB Ligand Name>
US20240109915, Example 35

> <Target Name>
Activating signal cointegrator 1 complex subunit 1

> <Target Source Organism According to Curator or DataSource>


> <Ki (nM)>


> <IC50 (nM)>
 2.60

> <Kd (nM)>


> <EC50 (nM)>


> <kon (M-1-s-1)>


> <koff (s-1)>


> <pH>


> <Temp C>


> <Curation/DataSource>
US Patent

> <Article DOI>


> <BindingDB Entry DOI>
10.7270/Q2348QQ2

> <PMID>


> <PubChem AID>


> <Patent Number>
US20240109915

> <Authors>
Bagley, SW; Bootsma, AN; Choi, C; Dow, RL; Edmonds, DJ; Garcia-Irizarry, CN; Gerstenberger, BS; Ingle, G; O''Brien, JG; Parikh, MD; Rescourio, GC; Schmitt, DC

> <Institution>
Pfizer

> <Link to Ligand in BindingDB>
http://www.bindingdb.org/bind/chemsearch/marvin/MolStructure.jsp?monomerid=663853

> <Link to Ligand-Target Pair in BindingDB>
http://www.bindingdb.org/jsp/dbsearch/PrimarySearch_ki.jsp?energyterm=kJ/mole&tag=pol&polymerid=735&target=Activating+signal+cointegrator+1+complex+subunit+1&column=ki&startPg=0&Increment=50&submit=Search

> <Link to Ligand-Target Pair in BindingDB>
http://www.bindingdb.org/jsp/dbsearch/PrimarySearch_ki.jsp?energyterm=kJ/mole&tag=r21&monomerid=663853&enzyme=Activating+signal+cointegrator+1+complex+subunit+1&column=ki&startPg=0&Increment=50&submit=Search

> <Ligand HET ID in PDB>


> <PDB ID(s) for Ligand-Target Complex>


> <PubChem CID>


> <PubChem SID>


> <ChEBI ID of Ligand>


> <ChEMBL ID of Ligand>


> <DrugBank ID of Ligand>


> <IUPHAR_GRAC ID of Ligand>


> <KEGG ID of Ligand>


> <ZINC ID of Ligand>


> <Number of Protein Chains in Target (bigger than 1 implies a multichain complex)>
1

> <BindingDB Target Chain Sequence>
MEVLRPQLIRIDGRNYRKNPVQEQTYQHEEDEEDFYQGSMECADEPCDAYEVEQTPQGFRSTLRAPSLLYNLIHLNTSNDCGFQKITLDCQNIYTWKSRHIVGKRGDTRKKIEMETKTSISIPKPGQDGEIVITGQHRNGVISARTRIDVLLDTFRRKQPFTHFLAFFLNEVEVQEGFLRFQEEVLAKCSMDHGVDSSIFQNPKKLHLTIGMLVLLSEEEIQQTCEMLQQCKEEFINDISGGKPLEVEMAGIEYMNDDPGMVDVLYAKVHMKDGSNRLQELVDRVLERFQASGLIVKEWNSVKLHATVMNTLFRKDPNAEGRYNLYTAEGKYIFKERESFDGRNILKSFALLPRLEYNDAISAHCNLCLPGSSDSPASASQVAGITGVSDAYSQSLPGKS

> <PDB ID(s) of Target Chain>


> <UniProt (SwissProt) Recommended Name of Target Chain>
Activating signal cointegrator 1 complex subunit 1

> <UniProt (SwissProt) Entry Name of Target Chain>
ASCC1_HUMAN

> <UniProt (SwissProt) Primary ID of Target Chain>
Q8N9N2

> <UniProt (SwissProt) Secondary ID(s) of Target Chain>
Q5SW06 Q5SW07 Q96EI8 Q9Y307

> <UniProt (SwissProt) Alternative ID(s) of Target Chain>


> <UniProt (TrEMBL) Submitted Name of Target Chain>


> <UniProt (TrEMBL) Entry Name of Target Chain>


> <UniProt (TrEMBL) Primary ID of Target Chain>


> <UniProt (TrEMBL) Secondary ID(s) of Target Chain>


> <UniProt (TrEMBL) Alternative ID(s) of Target Chain>


$$$$
00335001.cdx
  Mrv0541 06272400352D          

 35 39  0  0  0  0            999 V2000
   -5.0321    0.6187    0.0000 C   0  0  0  0  0  0  0  0  0  0  0  0
   -4.2071    0.6187    0.0000 C   0  0  0  0  0  0  0  0  0  0  0  0
   -4.6196    1.3332    0.0000 C   0  0  0  0  0  0  0  0  0  0  0  0
   -4.6196   -0.0957    0.0000 C   0  0  0  0  0  0  0  0  0  0  0  0
   -3.3821    0.6187    0.0000 C   0  0  0  0  0  0  0  0  0  0  0  0
   -2.8972    1.2862    0.0000 N   0  0  0  0  0  0  0  0  0  0  0  0
   -2.8972   -0.0487    0.0000 S   0  0  0  0  0  0  0  0  0  0  0  0
   -1.3981   -0.2062    0.0000 C   0  0  0  0  0  0  0  0  0  0  0  0
   -0.6836    0.2062    0.0000 C   0  0  0  0  0  0  0  0  0  0  0  0
   -0.6836   -0.6187    0.0000 C   0  0  0  0  0  0  0  0  0  0  0  0
   -2.1126    0.2062    0.0000 C   0  0  0  0  0  0  0  0  0  0  0  0
   -2.1126    1.0313    0.0000 C   0  0  0  0  0  0  0  0  0  0  0  0
   -1.3981    1.4437    0.0000 C   0  0  0  0  0  0  0  0  0  0  0  0
   -1.3981    2.2687    0.0000 O   0  0  0  0  0  0  0  0  0  0  0  0
   -0.6836    1.0313    0.0000 C   0  0  0  0  0  0  0  0  0  0  0  0
    0.0308    0.6187    0.0000 C   0  0  0  0  0  0  0  0  0  0  0  0
    0.7453    0.2062    0.0000 C   0  0  0  0  0  0  0  0  0  0  0  0
    0.7453   -0.6187    0.0000 N   0  0  0  0  0  0  0  0  0  0  0  0
    0.0308   -1.0313    0.0000 C   0  0  0  0  0  0  0  0  0  0  0  0
    5.0321   -2.2687    0.0000 C   0  0  0  0  0  0  0  0  0  0  0  0
    4.3177   -1.8563    0.0000 O   0  0  0  0  0  0  0  0  0  0  0  0
    2.1742    1.8563    0.0000 C   0  0  0  0  0  0  0  0  0  0  0  0
    2.8887    1.4437    0.0000 O   0  0  0  0  0  0  0  0  0  0  0  0
    3.6032   -0.6187    0.0000 C   0  0  0  0  0  0  0  0  0  0  0  0
    4.3177   -1.0313    0.0000 C   0  0  0  0  0  0  0  0  0  0  0  0
    2.8887   -1.0313    0.0000 C   0  0  0  0  0  0  0  0  0  0  0  0
    2.1742   -0.6187    0.0000 C   0  0  0  0  0  0  0  0  0  0  0  0
    1.4598   -1.0313    0.0000 C   0  0  0  0  0  0  0  0  0  0  0  0
    1.4598   -1.8563    0.0000 O   0  0  0  0  0  0  0  0  0  0  0  0
    2.1742    0.2062    0.0000 C   0  0  0  0  0  0  0  0  0  0  0  0
    2.8887    0.6187    0.0000 C   0  0  0  0  0  0  0  0  0  0  0  0
    3.6032    0.2062    0.0000 C   0  0  0  0  0  0  0  0  0  0  0  0
    4.3177    0.6187    0.0000 C   0  0  0  0  0  0  0  0  0  0  0  0
    5.0321    0.2062    0.0000 C   0  0  0  0  0  0  0  0  0  0  0  0
    5.0321   -0.6187    0.0000 N   0  0  0  0  0  0  0  0  0  0  0  0
  1  2  1  0  0  0  0
  2  3  1  0  0  0  0
  2  4  1  0  0  0  0
  2  5  1  0  0  0  0
  5  6  4  0  0  0  0
  5  7  4  0  0  0  0
  6 12  4  0  0  0  0
  7 11  4  0  0  0  0
  8  9  1  0  0  0  0
  8 11  1  0  0  0  0
  9 10  1  0  0  0  0
  9 15  1  0  0  0  0
  9 16  1  0  0  0  0
 10 19  1  0  0  0  0
 11 12  4  0  0  0  0
 12 13  1  0  0  0  0
 13 14  2  0  0  0  0
 13 15  1  0  0  0  0
 16 17  1  0  0  0  0
 17 18  1  0  0  0  0
 18 19  1  0  0  0  0
 18 28  1  0  0  0  0
 20 21  1  0  0  0  0
 21 25  1  0  0  0  0
 22 23  1  0  0  0  0
 23 31  1  0  0  0  0
 24 25  4  0  0  0  0
 24 26  4  0  0  0  0
 24 32  4  0  0  0  0
 25 35  4  0  0  0  0
 26 27  4  0  0  0  0
 27 28  1  0  0  0  0
 27 30  4  0  0  0  0
 28 29  2  0  0  0  0
 30 31  4  0  0  0  0
 31 32  4  0  0  0  0
 32 33  4  0  0  0  0
 33 34  4  0  0  0  0
 34 35  4  0  0  0  0
M  END
> <From>
www.bindingDB.org

> <BindingDB Reactant_set_id>
1397297

> <Ligand InChI>
InChI=1S/C27H31N3O4S/c1-26(2,3)25-29-22-19(31)14-27(15-21(22)35-25)7-10-30(11-8-27)24(32)16-12-18-17(20(13-16)33-4)6-9-28-23(18)34-5/h6,9,12-13H,7-8,10-11,14-15H2,1-5H3

> <Ligand InChI Key>
DWBQSVJOKMCHLW-UHFFFAOYSA-N

> <BindingDB MonomerID>
663915

> <BindingDB Ligand Name>
US20240109915, Example 100

> <Target Name>
Activating signal cointegrator 1 complex subunit 1

> <Target Source Organism According to Curator or DataSource>


> <Ki (nM)>


> <IC50 (nM)>
 3.10

> <Kd (nM)>


> <EC50 (nM)>


> <kon (M-1-s-1)>


> <koff (s-1)>


> <pH>


> <Temp C>


> <Curation/DataSource>
US Patent

> <Article DOI>


> <BindingDB Entry DOI>
10.7270/Q2348QQ2

> <PMID>


> <PubChem AID>


> <Patent Number>
US20240109915

> <Authors>
Bagley, SW; Bootsma, AN; Choi, C; Dow, RL; Edmonds, DJ; Garcia-Irizarry, CN; Gerstenberger, BS; Ingle, G; O''Brien, JG; Parikh, MD; Rescourio, GC; Schmitt, DC

> <Institution>
Pfizer

> <Link to Ligand in BindingDB>
http://www.bindingdb.org/bind/chemsearch/marvin/MolStructure.jsp?monomerid=663915

> <Link to Ligand-Target Pair in BindingDB>
http://www.bindingdb.org/jsp/dbsearch/PrimarySearch_ki.jsp?energyterm=kJ/mole&tag=pol&polymerid=735&target=Activating+signal+cointegrator+1+complex+subunit+1&column=ki&startPg=0&Increment=50&submit=Search

> <Link to Ligand-Target Pair in BindingDB>
http://www.bindingdb.org/jsp/dbsearch/PrimarySearch_ki.jsp?energyterm=kJ/mole&tag=r21&monomerid=663915&enzyme=Activating+signal+cointegrator+1+complex+subunit+1&column=ki&startPg=0&Increment=50&submit=Search

> <Ligand HET ID in PDB>


> <PDB ID(s) for Ligand-Target Complex>


> <PubChem CID>


> <PubChem SID>


> <ChEBI ID of Ligand>


> <ChEMBL ID of Ligand>


> <DrugBank ID of Ligand>


> <IUPHAR_GRAC ID of Ligand>


> <KEGG ID of Ligand>


> <ZINC ID of Ligand>


> <Number of Protein Chains in Target (bigger than 1 implies a multichain complex)>
1

> <BindingDB Target Chain Sequence>
MEVLRPQLIRIDGRNYRKNPVQEQTYQHEEDEEDFYQGSMECADEPCDAYEVEQTPQGFRSTLRAPSLLYNLIHLNTSNDCGFQKITLDCQNIYTWKSRHIVGKRGDTRKKIEMETKTSISIPKPGQDGEIVITGQHRNGVISARTRIDVLLDTFRRKQPFTHFLAFFLNEVEVQEGFLRFQEEVLAKCSMDHGVDSSIFQNPKKLHLTIGMLVLLSEEEIQQTCEMLQQCKEEFINDISGGKPLEVEMAGIEYMNDDPGMVDVLYAKVHMKDGSNRLQELVDRVLERFQASGLIVKEWNSVKLHATVMNTLFRKDPNAEGRYNLYTAEGKYIFKERESFDGRNILKSFALLPRLEYNDAISAHCNLCLPGSSDSPASASQVAGITGVSDAYSQSLPGKS

> <PDB ID(s) of Target Chain>


> <UniProt (SwissProt) Recommended Name of Target Chain>
Activating signal cointegrator 1 complex subunit 1

> <UniProt (SwissProt) Entry Name of Target Chain>
ASCC1_HUMAN

> <UniProt (SwissProt) Primary ID of Target Chain>
Q8N9N2

> <UniProt (SwissProt) Secondary ID(s) of Target Chain>
Q5SW06 Q5SW07 Q96EI8 Q9Y307

> <UniProt (SwissProt) Alternative ID(s) of Target Chain>


> <UniProt (TrEMBL) Submitted Name of Target Chain>


> <UniProt (TrEMBL) Entry Name of Target Chain>


> <UniProt (TrEMBL) Primary ID of Target Chain>


> <UniProt (TrEMBL) Secondary ID(s) of Target Chain>


> <UniProt (TrEMBL) Alternative ID(s) of Target Chain>


$$$$
00277001.cdx
  Mrv0541 06272400352D          

 32 36  0  0  0  0            999 V2000
   -3.3024    0.4125    0.0000 C   0  0  0  0  0  0  0  0  0  0  0  0
   -2.8175    1.0799    0.0000 N   0  0  0  0  0  0  0  0  0  0  0  0
   -4.1274    0.4125    0.0000 C   0  0  0  0  0  0  0  0  0  0  0  0
   -2.8175   -0.2549    0.0000 S   0  0  0  0  0  0  0  0  0  0  0  0
   -4.5399   -0.3020    0.0000 C   0  0  0  0  0  0  0  0  0  0  0  0
   -4.5399    1.1270    0.0000 C   0  0  0  0  0  0  0  0  0  0  0  0
   -4.9524    0.4125    0.0000 C   0  0  0  0  0  0  0  0  0  0  0  0
   -2.0329    0.0000    0.0000 C   0  0  0  0  0  0  0  0  0  0  0  0
   -2.0329    0.8250    0.0000 C   0  0  0  0  0  0  0  0  0  0  0  0
   -1.3184   -0.4125    0.0000 C   0  0  0  0  0  0  0  0  0  0  0  0
   -1.3184    1.2375    0.0000 C   0  0  0  0  0  0  0  0  0  0  0  0
   -1.3184    2.0625    0.0000 O   0  0  0  0  0  0  0  0  0  0  0  0
   -0.6039    0.8250    0.0000 C   0  0  0  0  0  0  0  0  0  0  0  0
   -0.6039    0.0000    0.0000 C   0  0  0  0  0  0  0  0  0  0  0  0
    0.1105    0.4125    0.0000 C   0  0  0  0  0  0  0  0  0  0  0  0
    0.8250    0.0000    0.0000 C   0  0  0  0  0  0  0  0  0  0  0  0
    0.8250   -0.8250    0.0000 N   0  0  0  0  0  0  0  0  0  0  0  0
   -0.6039   -0.8250    0.0000 C   0  0  0  0  0  0  0  0  0  0  0  0
    0.1105   -1.2375    0.0000 C   0  0  0  0  0  0  0  0  0  0  0  0
    2.2539   -0.8250    0.0000 C   0  0  0  0  0  0  0  0  0  0  0  0
    2.2539    0.0000    0.0000 C   0  0  0  0  0  0  0  0  0  0  0  0
    1.5395   -1.2375    0.0000 C   0  0  0  0  0  0  0  0  0  0  0  0
    2.9684    0.4125    0.0000 C   0  0  0  0  0  0  0  0  0  0  0  0
    2.9684    1.2375    0.0000 C   0  0  0  0  0  0  0  0  0  0  0  0
    3.6829    0.0000    0.0000 C   0  0  0  0  0  0  0  0  0  0  0  0
    3.6829   -0.8250    0.0000 C   0  0  0  0  0  0  0  0  0  0  0  0
    2.9684   -1.2375    0.0000 C   0  0  0  0  0  0  0  0  0  0  0  0
    1.5395   -2.0625    0.0000 O   0  0  0  0  0  0  0  0  0  0  0  0
    4.4675   -1.0799    0.0000 C   0  0  0  0  0  0  0  0  0  0  0  0
    4.9524   -0.4125    0.0000 C   0  0  0  0  0  0  0  0  0  0  0  0
    4.4675    0.2549    0.0000 N   0  0  0  0  0  0  0  0  0  0  0  0
    4.7224   -1.8646    0.0000 Cl  0  0  0  0  0  0  0  0  0  0  0  0
  1  2  4  0  0  0  0
  1  3  1  0  0  0  0
  1  4  4  0  0  0  0
  2  9  4  0  0  0  0
  3  5  1  0  0  0  0
  3  6  1  0  0  0  0
  3  7  1  0  0  0  0
  4  8  4  0  0  0  0
  8  9  4  0  0  0  0
  8 10  1  0  0  0  0
  9 11  1  0  0  0  0
 10 14  1  0  0  0  0
 11 12  2  0  0  0  0
 11 13  1  0  0  0  0
 13 14  1  0  0  0  0
 14 15  1  0  0  0  0
 14 18  1  0  0  0  0
 15 16  1  0  0  0  0
 16 17  1  0  0  0  0
 17 19  1  0  0  0  0
 17 22  1  0  0  0  0
 18 19  1  0  0  0  0
 20 21  4  0  0  0  0
 20 22  1  0  0  0  0
 20 27  4  0  0  0  0
 21 23  4  0  0  0  0
 22 28  2  0  0  0  0
 23 24  1  0  0  0  0
 23 25  4  0  0  0  0
 25 31  4  0  0  0  0
 25 26  4  0  0  0  0
 26 27  4  0  0  0  0
 26 29  4  0  0  0  0
 29 30  4  0  0  0  0
 29 32  1  0  0  0  0
 30 31  4  0  0  0  0
M  STY  1   1 DAT
M  SAL   1  1  31
M  SDT   1 MRV_IMPLICIT_H                                        
M  SDD   1     0.0000    0.0000    DR    ALL  0       0  
M  SED   1 IMPL_H1
M  END
> <From>
www.bindingDB.org

> <BindingDB Reactant_set_id>
1397242

> <Ligand InChI>
InChI=1S/C25H28ClN3O2S/c1-14-9-15(10-16-17(26)13-27-20(14)16)22(31)29-7-5-25(6-8-29)11-18(30)21-19(12-25)32-23(28-21)24(2,3)4/h9-10,13,27H,5-8,11-12H2,1-4H3

> <Ligand InChI Key>
ZSIODMXVDLZWAL-UHFFFAOYSA-N

> <BindingDB MonomerID>
663860

> <BindingDB Ligand Name>
US20240109915, Example 42

> <Target Name>
Activating signal cointegrator 1 complex subunit 1

> <Target Source Organism According to Curator or DataSource>


> <Ki (nM)>


> <IC50 (nM)>
 3.10

> <Kd (nM)>


> <EC50 (nM)>


> <kon (M-1-s-1)>


> <koff (s-1)>


> <pH>


> <Temp C>


> <Curation/DataSource>
US Patent

> <Article DOI>


> <BindingDB Entry DOI>
10.7270/Q2348QQ2

> <PMID>


> <PubChem AID>


> <Patent Number>
US20240109915

> <Authors>
Bagley, SW; Bootsma, AN; Choi, C; Dow, RL; Edmonds, DJ; Garcia-Irizarry, CN; Gerstenberger, BS; Ingle, G; O''Brien, JG; Parikh, MD; Rescourio, GC; Schmitt, DC

> <Institution>
Pfizer

> <Link to Ligand in BindingDB>
http://www.bindingdb.org/bind/chemsearch/marvin/MolStructure.jsp?monomerid=663860

> <Link to Ligand-Target Pair in BindingDB>
http://www.bindingdb.org/jsp/dbsearch/PrimarySearch_ki.jsp?energyterm=kJ/mole&tag=pol&polymerid=735&target=Activating+signal+cointegrator+1+complex+subunit+1&column=ki&startPg=0&Increment=50&submit=Search

> <Link to Ligand-Target Pair in BindingDB>
http://www.bindingdb.org/jsp/dbsearch/PrimarySearch_ki.jsp?energyterm=kJ/mole&tag=r21&monomerid=663860&enzyme=Activating+signal+cointegrator+1+complex+subunit+1&column=ki&startPg=0&Increment=50&submit=Search

> <Ligand HET ID in PDB>


> <PDB ID(s) for Ligand-Target Complex>


> <PubChem CID>


> <PubChem SID>


> <ChEBI ID of Ligand>


> <ChEMBL ID of Ligand>


> <DrugBank ID of Ligand>


> <IUPHAR_GRAC ID of Ligand>


> <KEGG ID of Ligand>


> <ZINC ID of Ligand>


> <Number of Protein Chains in Target (bigger than 1 implies a multichain complex)>
1

> <BindingDB Target Chain Sequence>
MEVLRPQLIRIDGRNYRKNPVQEQTYQHEEDEEDFYQGSMECADEPCDAYEVEQTPQGFRSTLRAPSLLYNLIHLNTSNDCGFQKITLDCQNIYTWKSRHIVGKRGDTRKKIEMETKTSISIPKPGQDGEIVITGQHRNGVISARTRIDVLLDTFRRKQPFTHFLAFFLNEVEVQEGFLRFQEEVLAKCSMDHGVDSSIFQNPKKLHLTIGMLVLLSEEEIQQTCEMLQQCKEEFINDISGGKPLEVEMAGIEYMNDDPGMVDVLYAKVHMKDGSNRLQELVDRVLERFQASGLIVKEWNSVKLHATVMNTLFRKDPNAEGRYNLYTAEGKYIFKERESFDGRNILKSFALLPRLEYNDAISAHCNLCLPGSSDSPASASQVAGITGVSDAYSQSLPGKS

> <PDB ID(s) of Target Chain>


> <UniProt (SwissProt) Recommended Name of Target Chain>
Activating signal cointegrator 1 complex subunit 1

> <UniProt (SwissProt) Entry Name of Target Chain>
ASCC1_HUMAN

> <UniProt (SwissProt) Primary ID of Target Chain>
Q8N9N2

> <UniProt (SwissProt) Secondary ID(s) of Target Chain>
Q5SW06 Q5SW07 Q96EI8 Q9Y307

> <UniProt (SwissProt) Alternative ID(s) of Target Chain>


> <UniProt (TrEMBL) Submitted Name of Target Chain>


> <UniProt (TrEMBL) Entry Name of Target Chain>


> <UniProt (TrEMBL) Primary ID of Target Chain>


> <UniProt (TrEMBL) Secondary ID(s) of Target Chain>


> <UniProt (TrEMBL) Alternative ID(s) of Target Chain>


$$$$
00259001.cdx
  Mrv0541 06272400352D          

 34 38  0  0  0  0            999 V2000
   -2.1126    1.0313    0.0000 C   0  0  0  0  0  0  0  0  0  0  0  0
   -2.1126    0.2062    0.0000 C   0  0  0  0  0  0  0  0  0  0  0  0
   -1.3981   -0.2062    0.0000 C   0  0  0  0  0  0  0  0  0  0  0  0
   -0.6836    0.2062    0.0000 C   0  0  0  0  0  0  0  0  0  0  0  0
   -0.6836    1.0313    0.0000 C   0  0  0  0  0  0  0  0  0  0  0  0
   -1.3981    1.4437    0.0000 C   0  0  0  0  0  0  0  0  0  0  0  0
   -0.6836   -0.6187    0.0000 C   0  0  0  0  0  0  0  0  0  0  0  0
    0.0308   -1.0313    0.0000 C   0  0  0  0  0  0  0  0  0  0  0  0
    0.7453   -0.6187    0.0000 N   0  0  0  0  0  0  0  0  0  0  0  0
    0.7453    0.2062    0.0000 C   0  0  0  0  0  0  0  0  0  0  0  0
    0.0308    0.6187    0.0000 C   0  0  0  0  0  0  0  0  0  0  0  0
    1.4598   -1.0313    0.0000 C   0  0  0  0  0  0  0  0  0  0  0  0
    2.1742   -0.6187    0.0000 C   0  0  0  0  0  0  0  0  0  0  0  0
    1.4598   -1.8563    0.0000 O   0  0  0  0  0  0  0  0  0  0  0  0
    2.8887   -1.0313    0.0000 C   0  0  0  0  0  0  0  0  0  0  0  0
    3.6032   -0.6187    0.0000 C   0  0  0  0  0  0  0  0  0  0  0  0
    3.6032    0.2062    0.0000 C   0  0  0  0  0  0  0  0  0  0  0  0
    2.8887    0.6187    0.0000 C   0  0  0  0  0  0  0  0  0  0  0  0
    2.1742    0.2062    0.0000 C   0  0  0  0  0  0  0  0  0  0  0  0
   -1.3981    2.2687    0.0000 O   0  0  0  0  0  0  0  0  0  0  0  0
   -2.8972    1.2862    0.0000 N   0  0  0  0  0  0  0  0  0  0  0  0
   -3.3821    0.6187    0.0000 C   0  0  0  0  0  0  0  0  0  0  0  0
   -2.8972   -0.0487    0.0000 S   0  0  0  0  0  0  0  0  0  0  0  0
   -4.2071    0.6187    0.0000 C   0  0  0  0  0  0  0  0  0  0  0  0
   -4.6196    1.3332    0.0000 C   0  0  0  0  0  0  0  0  0  0  0  0
   -4.6196   -0.0957    0.0000 C   0  0  0  0  0  0  0  0  0  0  0  0
   -5.0321    0.6187    0.0000 C   0  0  0  0  0  0  0  0  0  0  0  0
    4.3177   -1.0313    0.0000 C   0  0  0  0  0  0  0  0  0  0  0  0
    5.0321   -0.6187    0.0000 N   0  0  0  0  0  0  0  0  0  0  0  0
    5.0321    0.2062    0.0000 C   0  0  0  0  0  0  0  0  0  0  0  0
    4.3177    0.6187    0.0000 C   0  0  0  0  0  0  0  0  0  0  0  0
    2.8887    1.4437    0.0000 C   0  0  0  0  0  0  0  0  0  0  0  0
    4.3177   -1.8563    0.0000 N   0  0  0  0  0  0  0  0  0  0  0  0
    5.0321   -2.2687    0.0000 C   0  0  0  0  0  0  0  0  0  0  0  0
  1  2  4  0  0  0  0
  2  3  1  0  0  0  0
  3  4  1  0  0  0  0
  4  5  1  0  0  0  0
  5  6  1  0  0  0  0
  6  1  1  0  0  0  0
  4  7  1  0  0  0  0
  7  8  1  0  0  0  0
  8  9  1  0  0  0  0
  9 10  1  0  0  0  0
 10 11  1  0  0  0  0
 11  4  1  0  0  0  0
  9 12  1  0  0  0  0
 12 13  1  0  0  0  0
 12 14  2  0  0  0  0
 13 15  4  0  0  0  0
 15 16  4  0  0  0  0
 16 17  4  0  0  0  0
 17 18  4  0  0  0  0
 18 19  4  0  0  0  0
 19 13  4  0  0  0  0
  6 20  2  0  0  0  0
  1 21  4  0  0  0  0
 21 22  4  0  0  0  0
 22 23  4  0  0  0  0
 23  2  4  0  0  0  0
 22 24  1  0  0  0  0
 24 25  1  0  0  0  0
 24 26  1  0  0  0  0
 24 27  1  0  0  0  0
 16 28  4  0  0  0  0
 28 29  4  0  0  0  0
 29 30  4  0  0  0  0
 30 31  4  0  0  0  0
 31 17  4  0  0  0  0
 18 32  1  0  0  0  0
 28 33  1  0  0  0  0
 33 34  1  0  0  0  0
M  END
> <From>
www.bindingDB.org

> <BindingDB Reactant_set_id>
1397225

> <Ligand InChI>
InChI=1S/C27H32N4O2S/c1-16-12-17(13-19-18(16)6-9-29-23(19)28-5)24(33)31-10-7-27(8-11-31)14-20(32)22-21(15-27)34-25(30-22)26(2,3)4/h6,9,12-13H,7-8,10-11,14-15H2,1-5H3,(H,28,29)

> <Ligand InChI Key>
KPNVEJMZDFEEAB-UHFFFAOYSA-N

> <BindingDB MonomerID>
663843

> <BindingDB Ligand Name>
US20240109915, Example 24

> <Target Name>
Activating signal cointegrator 1 complex subunit 1

> <Target Source Organism According to Curator or DataSource>


> <Ki (nM)>


> <IC50 (nM)>
 3.10

> <Kd (nM)>


> <EC50 (nM)>


> <kon (M-1-s-1)>


> <koff (s-1)>


> <pH>


> <Temp C>


> <Curation/DataSource>
US Patent

> <Article DOI>


> <BindingDB Entry DOI>
10.7270/Q2348QQ2

> <PMID>


> <PubChem AID>


> <Patent Number>
US20240109915

> <Authors>
Bagley, SW; Bootsma, AN; Choi, C; Dow, RL; Edmonds, DJ; Garcia-Irizarry, CN; Gerstenberger, BS; Ingle, G; O''Brien, JG; Parikh, MD; Rescourio, GC; Schmitt, DC

> <Institution>
Pfizer

> <Link to Ligand in BindingDB>
http://www.bindingdb.org/bind/chemsearch/marvin/MolStructure.jsp?monomerid=663843

> <Link to Ligand-Target Pair in BindingDB>
http://www.bindingdb.org/jsp/dbsearch/PrimarySearch_ki.jsp?energyterm=kJ/mole&tag=pol&polymerid=735&target=Activating+signal+cointegrator+1+complex+subunit+1&column=ki&startPg=0&Increment=50&submit=Search

> <Link to Ligand-Target Pair in BindingDB>
http://www.bindingdb.org/jsp/dbsearch/PrimarySearch_ki.jsp?energyterm=kJ/mole&tag=r21&monomerid=663843&enzyme=Activating+signal+cointegrator+1+complex+subunit+1&column=ki&startPg=0&Increment=50&submit=Search

> <Ligand HET ID in PDB>


> <PDB ID(s) for Ligand-Target Complex>


> <PubChem CID>


> <PubChem SID>


> <ChEBI ID of Ligand>


> <ChEMBL ID of Ligand>


> <DrugBank ID of Ligand>


> <IUPHAR_GRAC ID of Ligand>


> <KEGG ID of Ligand>


> <ZINC ID of Ligand>


> <Number of Protein Chains in Target (bigger than 1 implies a multichain complex)>
1

> <BindingDB Target Chain Sequence>
MEVLRPQLIRIDGRNYRKNPVQEQTYQHEEDEEDFYQGSMECADEPCDAYEVEQTPQGFRSTLRAPSLLYNLIHLNTSNDCGFQKITLDCQNIYTWKSRHIVGKRGDTRKKIEMETKTSISIPKPGQDGEIVITGQHRNGVISARTRIDVLLDTFRRKQPFTHFLAFFLNEVEVQEGFLRFQEEVLAKCSMDHGVDSSIFQNPKKLHLTIGMLVLLSEEEIQQTCEMLQQCKEEFINDISGGKPLEVEMAGIEYMNDDPGMVDVLYAKVHMKDGSNRLQELVDRVLERFQASGLIVKEWNSVKLHATVMNTLFRKDPNAEGRYNLYTAEGKYIFKERESFDGRNILKSFALLPRLEYNDAISAHCNLCLPGSSDSPASASQVAGITGVSDAYSQSLPGKS

> <PDB ID(s) of Target Chain>


> <UniProt (SwissProt) Recommended Name of Target Chain>
Activating signal cointegrator 1 complex subunit 1

> <UniProt (SwissProt) Entry Name of Target Chain>
ASCC1_HUMAN

> <UniProt (SwissProt) Primary ID of Target Chain>
Q8N9N2

> <UniProt (SwissProt) Secondary ID(s) of Target Chain>
Q5SW06 Q5SW07 Q96EI8 Q9Y307

> <UniProt (SwissProt) Alternative ID(s) of Target Chain>


> <UniProt (TrEMBL) Submitted Name of Target Chain>


> <UniProt (TrEMBL) Entry Name of Target Chain>


> <UniProt (TrEMBL) Primary ID of Target Chain>


> <UniProt (TrEMBL) Secondary ID(s) of Target Chain>


> <UniProt (TrEMBL) Alternative ID(s) of Target Chain>


$$$$
00253001.cdx
  Mrv0541 06272400352D          

 35 39  0  0  0  0            999 V2000
   -3.1843    0.8250    0.0000 C   0  0  0  0  0  0  0  0  0  0  0  0
   -3.1843    0.0000    0.0000 C   0  0  0  0  0  0  0  0  0  0  0  0
   -2.4698   -0.4125    0.0000 C   0  0  0  0  0  0  0  0  0  0  0  0
   -1.7553    0.0000    0.0000 C   0  0  0  0  0  0  0  0  0  0  0  0
   -1.7553    0.8250    0.0000 C   0  0  0  0  0  0  0  0  0  0  0  0
   -2.4698    1.2375    0.0000 C   0  0  0  0  0  0  0  0  0  0  0  0
   -1.7553   -0.8250    0.0000 C   0  0  0  0  0  0  0  0  0  0  0  0
   -1.0409   -1.2375    0.0000 C   0  0  0  0  0  0  0  0  0  0  0  0
   -0.3264   -0.8250    0.0000 N   0  0  0  0  0  0  0  0  0  0  0  0
   -0.3264    0.0000    0.0000 C   0  0  0  0  0  0  0  0  0  0  0  0
   -1.0409    0.4125    0.0000 C   0  0  0  0  0  0  0  0  0  0  0  0
    0.3881   -1.2375    0.0000 C   0  0  0  0  0  0  0  0  0  0  0  0
    1.1025   -0.8250    0.0000 C   0  0  0  0  0  0  0  0  0  0  0  0
    0.3881   -2.0625    0.0000 O   0  0  0  0  0  0  0  0  0  0  0  0
    1.8170   -1.2375    0.0000 C   0  0  0  0  0  0  0  0  0  0  0  0
    2.5315   -0.8250    0.0000 C   0  0  0  0  0  0  0  0  0  0  0  0
    2.5315    0.0000    0.0000 C   0  0  0  0  0  0  0  0  0  0  0  0
    1.8170    0.4125    0.0000 C   0  0  0  0  0  0  0  0  0  0  0  0
    1.1025    0.0000    0.0000 C   0  0  0  0  0  0  0  0  0  0  0  0
    1.8170    1.2375    0.0000 C   0  0  0  0  0  0  0  0  0  0  0  0
   -2.4698    2.0625    0.0000 O   0  0  0  0  0  0  0  0  0  0  0  0
   -3.9689    1.0799    0.0000 N   0  0  0  0  0  0  0  0  0  0  0  0
   -4.4538    0.4125    0.0000 C   0  0  0  0  0  0  0  0  0  0  0  0
   -3.9689   -0.2549    0.0000 S   0  0  0  0  0  0  0  0  0  0  0  0
   -5.2788    0.4125    0.0000 C   0  0  0  0  0  0  0  0  0  0  0  0
   -5.6913    1.1270    0.0000 C   0  0  0  0  0  0  0  0  0  0  0  0
   -5.6913   -0.3020    0.0000 C   0  0  0  0  0  0  0  0  0  0  0  0
   -6.1038    0.4125    0.0000 C   0  0  0  0  0  0  0  0  0  0  0  0
    3.2460   -1.2375    0.0000 C   0  0  0  0  0  0  0  0  0  0  0  0
    3.9604   -0.8250    0.0000 C   0  0  0  0  0  0  0  0  0  0  0  0
    3.9604    0.0000    0.0000 C   0  0  0  0  0  0  0  0  0  0  0  0
    3.2460    0.4125    0.0000 N   0  0  0  0  0  0  0  0  0  0  0  0
    4.6749   -1.2375    0.0000 N   0  0  0  0  0  0  0  0  0  0  0  0
    5.3894   -0.8250    0.0000 C   0  0  0  0  0  0  0  0  0  0  0  0
    6.1038   -1.2375    0.0000 C   0  0  0  0  0  0  0  0  0  0  0  0
  1  2  4  0  0  0  0
  2  3  1  0  0  0  0
  3  4  1  0  0  0  0
  4  5  1  0  0  0  0
  5  6  1  0  0  0  0
  6  1  1  0  0  0  0
  4  7  1  0  0  0  0
  7  8  1  0  0  0  0
  8  9  1  0  0  0  0
  9 10  1  0  0  0  0
 10 11  1  0  0  0  0
 11  4  1  0  0  0  0
  9 12  1  0  0  0  0
 12 13  1  0  0  0  0
 12 14  2  0  0  0  0
 13 15  4  0  0  0  0
 15 16  4  0  0  0  0
 16 17  4  0  0  0  0
 17 18  4  0  0  0  0
 18 19  4  0  0  0  0
 19 13  4  0  0  0  0
 18 20  1  0  0  0  0
  6 21  2  0  0  0  0
  1 22  4  0  0  0  0
 22 23  4  0  0  0  0
 23 24  4  0  0  0  0
 24  2  4  0  0  0  0
 23 25  1  0  0  0  0
 25 26  1  0  0  0  0
 25 27  1  0  0  0  0
 25 28  1  0  0  0  0
 16 29  4  0  0  0  0
 29 30  4  0  0  0  0
 30 31  4  0  0  0  0
 31 32  4  0  0  0  0
 32 17  4  0  0  0  0
 30 33  1  0  0  0  0
 33 34  1  0  0  0  0
 34 35  1  0  0  0  0
M  END
> <From>
www.bindingDB.org

> <BindingDB Reactant_set_id>
1397219

> <Ligand InChI>
InChI=1S/C28H34N4O2S/c1-6-29-20-13-18-12-19(11-17(2)23(18)30-16-20)25(34)32-9-7-28(8-10-32)14-21(33)24-22(15-28)35-26(31-24)27(3,4)5/h11-13,16,29H,6-10,14-15H2,1-5H3

> <Ligand InChI Key>
CFLHMPHQPZNMQO-UHFFFAOYSA-N

> <BindingDB MonomerID>
663837

> <BindingDB Ligand Name>
US20240109915, Example 18

> <Target Name>
Activating signal cointegrator 1 complex subunit 1

> <Target Source Organism According to Curator or DataSource>


> <Ki (nM)>


> <IC50 (nM)>
 3.20

> <Kd (nM)>


> <EC50 (nM)>


> <kon (M-1-s-1)>


> <koff (s-1)>


> <pH>


> <Temp C>


> <Curation/DataSource>
US Patent

> <Article DOI>


> <BindingDB Entry DOI>
10.7270/Q2348QQ2

> <PMID>


> <PubChem AID>


> <Patent Number>
US20240109915

> <Authors>
Bagley, SW; Bootsma, AN; Choi, C; Dow, RL; Edmonds, DJ; Garcia-Irizarry, CN; Gerstenberger, BS; Ingle, G; O''Brien, JG; Parikh, MD; Rescourio, GC; Schmitt, DC

> <Institution>
Pfizer

> <Link to Ligand in BindingDB>
http://www.bindingdb.org/bind/chemsearch/marvin/MolStructure.jsp?monomerid=663837

> <Link to Ligand-Target Pair in BindingDB>
http://www.bindingdb.org/jsp/dbsearch/PrimarySearch_ki.jsp?energyterm=kJ/mole&tag=pol&polymerid=735&target=Activating+signal+cointegrator+1+complex+subunit+1&column=ki&startPg=0&Increment=50&submit=Search

> <Link to Ligand-Target Pair in BindingDB>
http://www.bindingdb.org/jsp/dbsearch/PrimarySearch_ki.jsp?energyterm=kJ/mole&tag=r21&monomerid=663837&enzyme=Activating+signal+cointegrator+1+complex+subunit+1&column=ki&startPg=0&Increment=50&submit=Search

> <Ligand HET ID in PDB>


> <PDB ID(s) for Ligand-Target Complex>


> <PubChem CID>


> <PubChem SID>


> <ChEBI ID of Ligand>


> <ChEMBL ID of Ligand>


> <DrugBank ID of Ligand>


> <IUPHAR_GRAC ID of Ligand>


> <KEGG ID of Ligand>


> <ZINC ID of Ligand>


> <Number of Protein Chains in Target (bigger than 1 implies a multichain complex)>
1

> <BindingDB Target Chain Sequence>
MEVLRPQLIRIDGRNYRKNPVQEQTYQHEEDEEDFYQGSMECADEPCDAYEVEQTPQGFRSTLRAPSLLYNLIHLNTSNDCGFQKITLDCQNIYTWKSRHIVGKRGDTRKKIEMETKTSISIPKPGQDGEIVITGQHRNGVISARTRIDVLLDTFRRKQPFTHFLAFFLNEVEVQEGFLRFQEEVLAKCSMDHGVDSSIFQNPKKLHLTIGMLVLLSEEEIQQTCEMLQQCKEEFINDISGGKPLEVEMAGIEYMNDDPGMVDVLYAKVHMKDGSNRLQELVDRVLERFQASGLIVKEWNSVKLHATVMNTLFRKDPNAEGRYNLYTAEGKYIFKERESFDGRNILKSFALLPRLEYNDAISAHCNLCLPGSSDSPASASQVAGITGVSDAYSQSLPGKS

> <PDB ID(s) of Target Chain>


> <UniProt (SwissProt) Recommended Name of Target Chain>
Activating signal cointegrator 1 complex subunit 1

> <UniProt (SwissProt) Entry Name of Target Chain>
ASCC1_HUMAN

> <UniProt (SwissProt) Primary ID of Target Chain>
Q8N9N2

> <UniProt (SwissProt) Secondary ID(s) of Target Chain>
Q5SW06 Q5SW07 Q96EI8 Q9Y307

> <UniProt (SwissProt) Alternative ID(s) of Target Chain>


> <UniProt (TrEMBL) Submitted Name of Target Chain>


> <UniProt (TrEMBL) Entry Name of Target Chain>


> <UniProt (TrEMBL) Primary ID of Target Chain>


> <UniProt (TrEMBL) Secondary ID(s) of Target Chain>


> <UniProt (TrEMBL) Alternative ID(s) of Target Chain>


$$$$
00250001.cdx
  Mrv0541 06272400352D          

 34 38  0  0  0  0            999 V2000
   -2.8271    0.8250    0.0000 C   0  0  0  0  0  0  0  0  0  0  0  0
   -2.8271    0.0000    0.0000 C   0  0  0  0  0  0  0  0  0  0  0  0
   -2.1126   -0.4125    0.0000 C   0  0  0  0  0  0  0  0  0  0  0  0
   -1.3981    0.0000    0.0000 C   0  0  0  0  0  0  0  0  0  0  0  0
   -1.3981    0.8250    0.0000 C   0  0  0  0  0  0  0  0  0  0  0  0
   -2.1126    1.2375    0.0000 C   0  0  0  0  0  0  0  0  0  0  0  0
   -1.3981   -0.8250    0.0000 C   0  0  0  0  0  0  0  0  0  0  0  0
   -0.6836   -1.2375    0.0000 C   0  0  0  0  0  0  0  0  0  0  0  0
    0.0308   -0.8250    0.0000 N   0  0  0  0  0  0  0  0  0  0  0  0
    0.0308    0.0000    0.0000 C   0  0  0  0  0  0  0  0  0  0  0  0
   -0.6836    0.4125    0.0000 C   0  0  0  0  0  0  0  0  0  0  0  0
    0.7453   -1.2375    0.0000 C   0  0  0  0  0  0  0  0  0  0  0  0
    1.4598   -0.8250    0.0000 C   0  0  0  0  0  0  0  0  0  0  0  0
    0.7453   -2.0625    0.0000 O   0  0  0  0  0  0  0  0  0  0  0  0
    2.1742   -1.2375    0.0000 C   0  0  0  0  0  0  0  0  0  0  0  0
    2.8887   -0.8250    0.0000 C   0  0  0  0  0  0  0  0  0  0  0  0
    2.8887    0.0000    0.0000 C   0  0  0  0  0  0  0  0  0  0  0  0
    2.1742    0.4125    0.0000 C   0  0  0  0  0  0  0  0  0  0  0  0
    1.4598    0.0000    0.0000 C   0  0  0  0  0  0  0  0  0  0  0  0
    2.1742    1.2375    0.0000 C   0  0  0  0  0  0  0  0  0  0  0  0
   -2.1126    2.0625    0.0000 O   0  0  0  0  0  0  0  0  0  0  0  0
   -3.6117    1.0799    0.0000 N   0  0  0  0  0  0  0  0  0  0  0  0
   -4.0966    0.4125    0.0000 C   0  0  0  0  0  0  0  0  0  0  0  0
   -3.6117   -0.2549    0.0000 S   0  0  0  0  0  0  0  0  0  0  0  0
   -4.9216    0.4125    0.0000 C   0  0  0  0  0  0  0  0  0  0  0  0
   -5.3341    1.1270    0.0000 C   0  0  0  0  0  0  0  0  0  0  0  0
   -5.3341   -0.3020    0.0000 C   0  0  0  0  0  0  0  0  0  0  0  0
   -5.7466    0.4125    0.0000 C   0  0  0  0  0  0  0  0  0  0  0  0
    3.6032   -1.2375    0.0000 C   0  0  0  0  0  0  0  0  0  0  0  0
    4.3177   -0.8250    0.0000 C   0  0  0  0  0  0  0  0  0  0  0  0
    4.3177    0.0000    0.0000 C   0  0  0  0  0  0  0  0  0  0  0  0
    3.6032    0.4125    0.0000 N   0  0  0  0  0  0  0  0  0  0  0  0
    5.0321   -1.2375    0.0000 N   0  0  0  0  0  0  0  0  0  0  0  0
    5.7466   -0.8250    0.0000 C   0  0  0  0  0  0  0  0  0  0  0  0
  1  2  4  0  0  0  0
  2  3  1  0  0  0  0
  3  4  1  0  0  0  0
  4  5  1  0  0  0  0
  5  6  1  0  0  0  0
  6  1  1  0  0  0  0
  4  7  1  0  0  0  0
  7  8  1  0  0  0  0
  8  9  1  0  0  0  0
  9 10  1  0  0  0  0
 10 11  1  0  0  0  0
 11  4  1  0  0  0  0
  9 12  1  0  0  0  0
 12 13  1  0  0  0  0
 12 14  2  0  0  0  0
 13 15  4  0  0  0  0
 15 16  4  0  0  0  0
 16 17  4  0  0  0  0
 17 18  4  0  0  0  0
 18 19  4  0  0  0  0
 19 13  4  0  0  0  0
 18 20  1  0  0  0  0
  6 21  2  0  0  0  0
  1 22  4  0  0  0  0
 22 23  4  0  0  0  0
 23 24  4  0  0  0  0
 24  2  4  0  0  0  0
 23 25  1  0  0  0  0
 25 26  1  0  0  0  0
 25 27  1  0  0  0  0
 25 28  1  0  0  0  0
 16 29  4  0  0  0  0
 29 30  4  0  0  0  0
 30 31  4  0  0  0  0
 31 32  4  0  0  0  0
 32 17  4  0  0  0  0
 30 33  1  0  0  0  0
 33 34  1  0  0  0  0
M  END
> <From>
www.bindingDB.org

> <BindingDB Reactant_set_id>
1397216

> <Ligand InChI>
InChI=1S/C27H32N4O2S/c1-16-10-18(11-17-12-19(28-5)15-29-22(16)17)24(33)31-8-6-27(7-9-31)13-20(32)23-21(14-27)34-25(30-23)26(2,3)4/h10-12,15,28H,6-9,13-14H2,1-5H3

> <Ligand InChI Key>
OUKIVRGAXJNZNC-UHFFFAOYSA-N

> <BindingDB MonomerID>
663834

> <BindingDB Ligand Name>
US20240109915, Example 15

> <Target Name>
Activating signal cointegrator 1 complex subunit 1

> <Target Source Organism According to Curator or DataSource>


> <Ki (nM)>


> <IC50 (nM)>
 3.40

> <Kd (nM)>


> <EC50 (nM)>


> <kon (M-1-s-1)>


> <koff (s-1)>


> <pH>


> <Temp C>


> <Curation/DataSource>
US Patent

> <Article DOI>


> <BindingDB Entry DOI>
10.7270/Q2348QQ2

> <PMID>


> <PubChem AID>


> <Patent Number>
US20240109915

> <Authors>
Bagley, SW; Bootsma, AN; Choi, C; Dow, RL; Edmonds, DJ; Garcia-Irizarry, CN; Gerstenberger, BS; Ingle, G; O''Brien, JG; Parikh, MD; Rescourio, GC; Schmitt, DC

> <Institution>
Pfizer

> <Link to Ligand in BindingDB>
http://www.bindingdb.org/bind/chemsearch/marvin/MolStructure.jsp?monomerid=663834

> <Link to Ligand-Target Pair in BindingDB>
http://www.bindingdb.org/jsp/dbsearch/PrimarySearch_ki.jsp?energyterm=kJ/mole&tag=pol&polymerid=735&target=Activating+signal+cointegrator+1+complex+subunit+1&column=ki&startPg=0&Increment=50&submit=Search

> <Link to Ligand-Target Pair in BindingDB>
http://www.bindingdb.org/jsp/dbsearch/PrimarySearch_ki.jsp?energyterm=kJ/mole&tag=r21&monomerid=663834&enzyme=Activating+signal+cointegrator+1+complex+subunit+1&column=ki&startPg=0&Increment=50&submit=Search

> <Ligand HET ID in PDB>


> <PDB ID(s) for Ligand-Target Complex>


> <PubChem CID>


> <PubChem SID>


> <ChEBI ID of Ligand>


> <ChEMBL ID of Ligand>


> <DrugBank ID of Ligand>


> <IUPHAR_GRAC ID of Ligand>


> <KEGG ID of Ligand>


> <ZINC ID of Ligand>


> <Number of Protein Chains in Target (bigger than 1 implies a multichain complex)>
1

> <BindingDB Target Chain Sequence>
MEVLRPQLIRIDGRNYRKNPVQEQTYQHEEDEEDFYQGSMECADEPCDAYEVEQTPQGFRSTLRAPSLLYNLIHLNTSNDCGFQKITLDCQNIYTWKSRHIVGKRGDTRKKIEMETKTSISIPKPGQDGEIVITGQHRNGVISARTRIDVLLDTFRRKQPFTHFLAFFLNEVEVQEGFLRFQEEVLAKCSMDHGVDSSIFQNPKKLHLTIGMLVLLSEEEIQQTCEMLQQCKEEFINDISGGKPLEVEMAGIEYMNDDPGMVDVLYAKVHMKDGSNRLQELVDRVLERFQASGLIVKEWNSVKLHATVMNTLFRKDPNAEGRYNLYTAEGKYIFKERESFDGRNILKSFALLPRLEYNDAISAHCNLCLPGSSDSPASASQVAGITGVSDAYSQSLPGKS

> <PDB ID(s) of Target Chain>


> <UniProt (SwissProt) Recommended Name of Target Chain>
Activating signal cointegrator 1 complex subunit 1

> <UniProt (SwissProt) Entry Name of Target Chain>
ASCC1_HUMAN

> <UniProt (SwissProt) Primary ID of Target Chain>
Q8N9N2

> <UniProt (SwissProt) Secondary ID(s) of Target Chain>
Q5SW06 Q5SW07 Q96EI8 Q9Y307

> <UniProt (SwissProt) Alternative ID(s) of Target Chain>


> <UniProt (TrEMBL) Submitted Name of Target Chain>


> <UniProt (TrEMBL) Entry Name of Target Chain>


> <UniProt (TrEMBL) Primary ID of Target Chain>


> <UniProt (TrEMBL) Secondary ID(s) of Target Chain>


> <UniProt (TrEMBL) Alternative ID(s) of Target Chain>


$$$$
00290001.cdx
  Mrv0541 06272400352D          

 32 36  0  0  0  0            999 V2000
   -4.8748    0.4125    0.0000 C   0  0  0  0  0  0  0  0  0  0  0  0
   -4.0498    0.4125    0.0000 C   0  0  0  0  0  0  0  0  0  0  0  0
   -4.4623   -0.3020    0.0000 C   0  0  0  0  0  0  0  0  0  0  0  0
   -4.4623    1.1270    0.0000 C   0  0  0  0  0  0  0  0  0  0  0  0
   -3.2248    0.4125    0.0000 C   0  0  0  0  0  0  0  0  0  0  0  0
   -2.7399    1.0799    0.0000 N   0  0  0  0  0  0  0  0  0  0  0  0
   -2.7399   -0.2549    0.0000 S   0  0  0  0  0  0  0  0  0  0  0  0
   -0.5263    0.0000    0.0000 C   0  0  0  0  0  0  0  0  0  0  0  0
   -0.5263   -0.8250    0.0000 C   0  0  0  0  0  0  0  0  0  0  0  0
    0.1882   -1.2375    0.0000 C   0  0  0  0  0  0  0  0  0  0  0  0
   -1.2408   -0.4125    0.0000 C   0  0  0  0  0  0  0  0  0  0  0  0
   -1.9552    0.0000    0.0000 C   0  0  0  0  0  0  0  0  0  0  0  0
   -1.9552    0.8250    0.0000 C   0  0  0  0  0  0  0  0  0  0  0  0
   -1.2408    1.2375    0.0000 C   0  0  0  0  0  0  0  0  0  0  0  0
   -1.2408    2.0625    0.0000 O   0  0  0  0  0  0  0  0  0  0  0  0
   -0.5263    0.8250    0.0000 C   0  0  0  0  0  0  0  0  0  0  0  0
    0.1882    0.4125    0.0000 C   0  0  0  0  0  0  0  0  0  0  0  0
    0.9026    0.0000    0.0000 C   0  0  0  0  0  0  0  0  0  0  0  0
    0.9026   -0.8250    0.0000 N   0  0  0  0  0  0  0  0  0  0  0  0
    1.6171   -2.0625    0.0000 O   0  0  0  0  0  0  0  0  0  0  0  0
    1.6171   -1.2375    0.0000 C   0  0  0  0  0  0  0  0  0  0  0  0
    2.3316   -0.8250    0.0000 C   0  0  0  0  0  0  0  0  0  0  0  0
    2.4178   -0.0045    0.0000 C   0  0  0  0  0  0  0  0  0  0  0  0
    3.2248    0.1670    0.0000 C   0  0  0  0  0  0  0  0  0  0  0  0
    3.6373    0.8815    0.0000 C   0  0  0  0  0  0  0  0  0  0  0  0
    3.2248    1.5959    0.0000 C   0  0  0  0  0  0  0  0  0  0  0  0
    4.4623    0.8815    0.0000 C   0  0  0  0  0  0  0  0  0  0  0  0
    4.8748    0.1670    0.0000 C   0  0  0  0  0  0  0  0  0  0  0  0
    4.4623   -0.5475    0.0000 C   0  0  0  0  0  0  0  0  0  0  0  0
    4.8748   -1.2619    0.0000 C   0  0  0  0  0  0  0  0  0  0  0  0
    3.6373   -0.5475    0.0000 C   0  0  0  0  0  0  0  0  0  0  0  0
    3.0853   -1.1606    0.0000 N   0  0  0  0  0  0  0  0  0  0  0  0
  1  2  1  0  0  0  0
  2  3  1  0  0  0  0
  2  4  1  0  0  0  0
  2  5  1  0  0  0  0
  5  6  4  0  0  0  0
  5  7  4  0  0  0  0
  6 13  4  0  0  0  0
  7 12  4  0  0  0  0
  8  9  1  0  0  0  0
  8 11  1  0  0  0  0
  8 16  1  0  0  0  0
  8 17  1  0  0  0  0
  9 10  1  0  0  0  0
 10 19  1  0  0  0  0
 11 12  1  0  0  0  0
 12 13  4  0  0  0  0
 13 14  1  0  0  0  0
 14 15  2  0  0  0  0
 14 16  1  0  0  0  0
 17 18  1  0  0  0  0
 18 19  1  0  0  0  0
 19 21  1  0  0  0  0
 20 21  2  0  0  0  0
 21 22  1  0  0  0  0
 22 23  4  0  0  0  0
 22 32  4  0  0  0  0
 23 24  4  0  0  0  0
 24 25  4  0  0  0  0
 24 31  4  0  0  0  0
 25 26  1  0  0  0  0
 25 27  4  0  0  0  0
 27 28  4  0  0  0  0
 28 29  4  0  0  0  0
 29 30  1  0  0  0  0
 29 31  4  0  0  0  0
 31 32  4  0  0  0  0
M  STY  1   1 DAT
M  SAL   1  1  32
M  SDT   1 MRV_IMPLICIT_H                                        
M  SDD   1     0.0000    0.0000    DR    ALL  0       0  
M  SED   1 IMPL_H1
M  END
> <From>
www.bindingDB.org

> <BindingDB Reactant_set_id>
1397253

> <Ligand InChI>
InChI=1S/C26H31N3O2S/c1-15-6-7-16(2)21-17(15)12-18(27-21)23(31)29-10-8-26(9-11-29)13-19(30)22-20(14-26)32-24(28-22)25(3,4)5/h6-7,12,27H,8-11,13-14H2,1-5H3

> <Ligand InChI Key>
HEZGDFXWKUCOMD-UHFFFAOYSA-N

> <BindingDB MonomerID>
663871

> <BindingDB Ligand Name>
US20240109915, Example 55

> <Target Name>
Activating signal cointegrator 1 complex subunit 1

> <Target Source Organism According to Curator or DataSource>


> <Ki (nM)>


> <IC50 (nM)>
 3.50

> <Kd (nM)>


> <EC50 (nM)>


> <kon (M-1-s-1)>


> <koff (s-1)>


> <pH>


> <Temp C>


> <Curation/DataSource>
US Patent

> <Article DOI>


> <BindingDB Entry DOI>
10.7270/Q2348QQ2

> <PMID>


> <PubChem AID>


> <Patent Number>
US20240109915

> <Authors>
Bagley, SW; Bootsma, AN; Choi, C; Dow, RL; Edmonds, DJ; Garcia-Irizarry, CN; Gerstenberger, BS; Ingle, G; O''Brien, JG; Parikh, MD; Rescourio, GC; Schmitt, DC

> <Institution>
Pfizer

> <Link to Ligand in BindingDB>
http://www.bindingdb.org/bind/chemsearch/marvin/MolStructure.jsp?monomerid=663871

> <Link to Ligand-Target Pair in BindingDB>
http://www.bindingdb.org/jsp/dbsearch/PrimarySearch_ki.jsp?energyterm=kJ/mole&tag=pol&polymerid=735&target=Activating+signal+cointegrator+1+complex+subunit+1&column=ki&startPg=0&Increment=50&submit=Search

> <Link to Ligand-Target Pair in BindingDB>
http://www.bindingdb.org/jsp/dbsearch/PrimarySearch_ki.jsp?energyterm=kJ/mole&tag=r21&monomerid=663871&enzyme=Activating+signal+cointegrator+1+complex+subunit+1&column=ki&startPg=0&Increment=50&submit=Search

> <Ligand HET ID in PDB>


> <PDB ID(s) for Ligand-Target Complex>


> <PubChem CID>


> <PubChem SID>


> <ChEBI ID of Ligand>


> <ChEMBL ID of Ligand>


> <DrugBank ID of Ligand>


> <IUPHAR_GRAC ID of Ligand>


> <KEGG ID of Ligand>


> <ZINC ID of Ligand>


> <Number of Protein Chains in Target (bigger than 1 implies a multichain complex)>
1

> <BindingDB Target Chain Sequence>
MEVLRPQLIRIDGRNYRKNPVQEQTYQHEEDEEDFYQGSMECADEPCDAYEVEQTPQGFRSTLRAPSLLYNLIHLNTSNDCGFQKITLDCQNIYTWKSRHIVGKRGDTRKKIEMETKTSISIPKPGQDGEIVITGQHRNGVISARTRIDVLLDTFRRKQPFTHFLAFFLNEVEVQEGFLRFQEEVLAKCSMDHGVDSSIFQNPKKLHLTIGMLVLLSEEEIQQTCEMLQQCKEEFINDISGGKPLEVEMAGIEYMNDDPGMVDVLYAKVHMKDGSNRLQELVDRVLERFQASGLIVKEWNSVKLHATVMNTLFRKDPNAEGRYNLYTAEGKYIFKERESFDGRNILKSFALLPRLEYNDAISAHCNLCLPGSSDSPASASQVAGITGVSDAYSQSLPGKS

> <PDB ID(s) of Target Chain>


> <UniProt (SwissProt) Recommended Name of Target Chain>
Activating signal cointegrator 1 complex subunit 1

> <UniProt (SwissProt) Entry Name of Target Chain>
ASCC1_HUMAN

> <UniProt (SwissProt) Primary ID of Target Chain>
Q8N9N2

> <UniProt (SwissProt) Secondary ID(s) of Target Chain>
Q5SW06 Q5SW07 Q96EI8 Q9Y307

> <UniProt (SwissProt) Alternative ID(s) of Target Chain>


> <UniProt (TrEMBL) Submitted Name of Target Chain>


> <UniProt (TrEMBL) Entry Name of Target Chain>


> <UniProt (TrEMBL) Primary ID of Target Chain>


> <UniProt (TrEMBL) Secondary ID(s) of Target Chain>


> <UniProt (TrEMBL) Alternative ID(s) of Target Chain>


$$$$
00267001.cdx
  Mrv0541 06272400352D          

 34 38  0  0  0  0            999 V2000
   -3.1843    0.8250    0.0000 C   0  0  0  0  0  0  0  0  0  0  0  0
   -3.1843    0.0000    0.0000 C   0  0  0  0  0  0  0  0  0  0  0  0
   -2.4698   -0.4125    0.0000 C   0  0  0  0  0  0  0  0  0  0  0  0
   -1.7553    0.0000    0.0000 C   0  0  0  0  0  0  0  0  0  0  0  0
   -1.7553    0.8250    0.0000 C   0  0  0  0  0  0  0  0  0  0  0  0
   -2.4698    1.2375    0.0000 C   0  0  0  0  0  0  0  0  0  0  0  0
   -1.7553   -0.8250    0.0000 C   0  0  0  0  0  0  0  0  0  0  0  0
   -1.0409   -1.2375    0.0000 C   0  0  0  0  0  0  0  0  0  0  0  0
   -0.3264   -0.8250    0.0000 N   0  0  0  0  0  0  0  0  0  0  0  0
   -0.3264    0.0000    0.0000 C   0  0  0  0  0  0  0  0  0  0  0  0
   -1.0409    0.4125    0.0000 C   0  0  0  0  0  0  0  0  0  0  0  0
    0.3881   -1.2375    0.0000 C   0  0  0  0  0  0  0  0  0  0  0  0
    1.1025   -0.8250    0.0000 C   0  0  0  0  0  0  0  0  0  0  0  0
    0.3881   -2.0625    0.0000 O   0  0  0  0  0  0  0  0  0  0  0  0
    1.8170   -1.2375    0.0000 C   0  0  0  0  0  0  0  0  0  0  0  0
    2.5315   -0.8250    0.0000 C   0  0  0  0  0  0  0  0  0  0  0  0
    2.5315    0.0000    0.0000 C   0  0  0  0  0  0  0  0  0  0  0  0
    1.8170    0.4125    0.0000 C   0  0  0  0  0  0  0  0  0  0  0  0
    1.1025    0.0000    0.0000 C   0  0  0  0  0  0  0  0  0  0  0  0
   -2.4698    2.0625    0.0000 O   0  0  0  0  0  0  0  0  0  0  0  0
   -3.9689    1.0799    0.0000 N   0  0  0  0  0  0  0  0  0  0  0  0
   -4.4538    0.4125    0.0000 C   0  0  0  0  0  0  0  0  0  0  0  0
   -3.9689   -0.2549    0.0000 S   0  0  0  0  0  0  0  0  0  0  0  0
   -5.2788    0.4125    0.0000 C   0  0  0  0  0  0  0  0  0  0  0  0
   -5.6913    1.1270    0.0000 C   0  0  0  0  0  0  0  0  0  0  0  0
   -5.6913   -0.3020    0.0000 C   0  0  0  0  0  0  0  0  0  0  0  0
   -6.1038    0.4125    0.0000 C   0  0  0  0  0  0  0  0  0  0  0  0
    3.2459   -1.2375    0.0000 N   0  0  0  0  0  0  0  0  0  0  0  0
    3.9604   -0.8250    0.0000 C   0  0  0  0  0  0  0  0  0  0  0  0
    3.9604    0.0000    0.0000 C   0  0  0  0  0  0  0  0  0  0  0  0
    3.2459    0.4125    0.0000 C   0  0  0  0  0  0  0  0  0  0  0  0
    4.6749   -1.2375    0.0000 N   0  0  0  0  0  0  0  0  0  0  0  0
    5.3894   -0.8250    0.0000 C   0  0  0  0  0  0  0  0  0  0  0  0
    6.1038   -1.2375    0.0000 C   0  0  0  0  0  0  0  0  0  0  0  0
  1  2  4  0  0  0  0
  2  3  1  0  0  0  0
  3  4  1  0  0  0  0
  4  5  1  0  0  0  0
  5  6  1  0  0  0  0
  6  1  1  0  0  0  0
  4  7  1  0  0  0  0
  7  8  1  0  0  0  0
  8  9  1  0  0  0  0
  9 10  1  0  0  0  0
 10 11  1  0  0  0  0
 11  4  1  0  0  0  0
  9 12  1  0  0  0  0
 12 13  1  0  0  0  0
 12 14  2  0  0  0  0
 13 15  4  0  0  0  0
 15 16  4  0  0  0  0
 16 17  4  0  0  0  0
 17 18  4  0  0  0  0
 18 19  4  0  0  0  0
 19 13  4  0  0  0  0
  6 20  2  0  0  0  0
  1 21  4  0  0  0  0
 21 22  4  0  0  0  0
 22 23  4  0  0  0  0
 23  2  4  0  0  0  0
 22 24  1  0  0  0  0
 24 25  1  0  0  0  0
 24 26  1  0  0  0  0
 24 27  1  0  0  0  0
 16 28  4  0  0  0  0
 28 29  4  0  0  0  0
 29 30  4  0  0  0  0
 30 31  4  0  0  0  0
 31 17  4  0  0  0  0
 29 32  1  0  0  0  0
 32 33  1  0  0  0  0
 33 34  1  0  0  0  0
M  END
> <From>
www.bindingDB.org

> <BindingDB Reactant_set_id>
1397232

> <Ligand InChI>
InChI=1S/C27H32N4O2S/c1-5-28-22-9-8-17-6-7-18(14-19(17)29-22)24(33)31-12-10-27(11-13-31)15-20(32)23-21(16-27)34-25(30-23)26(2,3)4/h6-9,14H,5,10-13,15-16H2,1-4H3,(H,28,29)

> <Ligand InChI Key>
QKDNMSMFYOEEMD-UHFFFAOYSA-N

> <BindingDB MonomerID>
663850

> <BindingDB Ligand Name>
US20240109915, Example 32

> <Target Name>
Activating signal cointegrator 1 complex subunit 1

> <Target Source Organism According to Curator or DataSource>


> <Ki (nM)>


> <IC50 (nM)>
 3.50

> <Kd (nM)>


> <EC50 (nM)>


> <kon (M-1-s-1)>


> <koff (s-1)>


> <pH>


> <Temp C>


> <Curation/DataSource>
US Patent

> <Article DOI>


> <BindingDB Entry DOI>
10.7270/Q2348QQ2

> <PMID>


> <PubChem AID>


> <Patent Number>
US20240109915

> <Authors>
Bagley, SW; Bootsma, AN; Choi, C; Dow, RL; Edmonds, DJ; Garcia-Irizarry, CN; Gerstenberger, BS; Ingle, G; O''Brien, JG; Parikh, MD; Rescourio, GC; Schmitt, DC

> <Institution>
Pfizer

> <Link to Ligand in BindingDB>
http://www.bindingdb.org/bind/chemsearch/marvin/MolStructure.jsp?monomerid=663850

> <Link to Ligand-Target Pair in BindingDB>
http://www.bindingdb.org/jsp/dbsearch/PrimarySearch_ki.jsp?energyterm=kJ/mole&tag=pol&polymerid=735&target=Activating+signal+cointegrator+1+complex+subunit+1&column=ki&startPg=0&Increment=50&submit=Search

> <Link to Ligand-Target Pair in BindingDB>
http://www.bindingdb.org/jsp/dbsearch/PrimarySearch_ki.jsp?energyterm=kJ/mole&tag=r21&monomerid=663850&enzyme=Activating+signal+cointegrator+1+complex+subunit+1&column=ki&startPg=0&Increment=50&submit=Search

> <Ligand HET ID in PDB>


> <PDB ID(s) for Ligand-Target Complex>


> <PubChem CID>


> <PubChem SID>


> <ChEBI ID of Ligand>


> <ChEMBL ID of Ligand>


> <DrugBank ID of Ligand>


> <IUPHAR_GRAC ID of Ligand>


> <KEGG ID of Ligand>


> <ZINC ID of Ligand>


> <Number of Protein Chains in Target (bigger than 1 implies a multichain complex)>
1

> <BindingDB Target Chain Sequence>
MEVLRPQLIRIDGRNYRKNPVQEQTYQHEEDEEDFYQGSMECADEPCDAYEVEQTPQGFRSTLRAPSLLYNLIHLNTSNDCGFQKITLDCQNIYTWKSRHIVGKRGDTRKKIEMETKTSISIPKPGQDGEIVITGQHRNGVISARTRIDVLLDTFRRKQPFTHFLAFFLNEVEVQEGFLRFQEEVLAKCSMDHGVDSSIFQNPKKLHLTIGMLVLLSEEEIQQTCEMLQQCKEEFINDISGGKPLEVEMAGIEYMNDDPGMVDVLYAKVHMKDGSNRLQELVDRVLERFQASGLIVKEWNSVKLHATVMNTLFRKDPNAEGRYNLYTAEGKYIFKERESFDGRNILKSFALLPRLEYNDAISAHCNLCLPGSSDSPASASQVAGITGVSDAYSQSLPGKS

> <PDB ID(s) of Target Chain>


> <UniProt (SwissProt) Recommended Name of Target Chain>
Activating signal cointegrator 1 complex subunit 1

> <UniProt (SwissProt) Entry Name of Target Chain>
ASCC1_HUMAN

> <UniProt (SwissProt) Primary ID of Target Chain>
Q8N9N2

> <UniProt (SwissProt) Secondary ID(s) of Target Chain>
Q5SW06 Q5SW07 Q96EI8 Q9Y307

> <UniProt (SwissProt) Alternative ID(s) of Target Chain>


> <UniProt (TrEMBL) Submitted Name of Target Chain>


> <UniProt (TrEMBL) Entry Name of Target Chain>


> <UniProt (TrEMBL) Primary ID of Target Chain>


> <UniProt (TrEMBL) Secondary ID(s) of Target Chain>


> <UniProt (TrEMBL) Alternative ID(s) of Target Chain>


$$$$
00256001.cdx
  Mrv0541 06272400352D          

 34 38  0  0  0  0            999 V2000
   -2.8271    0.8250    0.0000 C   0  0  0  0  0  0  0  0  0  0  0  0
   -2.8271    0.0000    0.0000 C   0  0  0  0  0  0  0  0  0  0  0  0
   -2.1126   -0.4125    0.0000 C   0  0  0  0  0  0  0  0  0  0  0  0
   -1.3981    0.0000    0.0000 C   0  0  0  0  0  0  0  0  0  0  0  0
   -1.3981    0.8250    0.0000 C   0  0  0  0  0  0  0  0  0  0  0  0
   -2.1126    1.2375    0.0000 C   0  0  0  0  0  0  0  0  0  0  0  0
   -1.3981   -0.8250    0.0000 C   0  0  0  0  0  0  0  0  0  0  0  0
   -0.6836   -1.2375    0.0000 C   0  0  0  0  0  0  0  0  0  0  0  0
    0.0308   -0.8250    0.0000 N   0  0  0  0  0  0  0  0  0  0  0  0
    0.0308    0.0000    0.0000 C   0  0  0  0  0  0  0  0  0  0  0  0
   -0.6836    0.4125    0.0000 C   0  0  0  0  0  0  0  0  0  0  0  0
    0.7453   -1.2375    0.0000 C   0  0  0  0  0  0  0  0  0  0  0  0
    1.4598   -0.8250    0.0000 C   0  0  0  0  0  0  0  0  0  0  0  0
    0.7453   -2.0625    0.0000 O   0  0  0  0  0  0  0  0  0  0  0  0
    2.1742   -1.2375    0.0000 C   0  0  0  0  0  0  0  0  0  0  0  0
    2.8887   -0.8250    0.0000 C   0  0  0  0  0  0  0  0  0  0  0  0
    2.8887    0.0000    0.0000 C   0  0  0  0  0  0  0  0  0  0  0  0
    2.1742    0.4125    0.0000 C   0  0  0  0  0  0  0  0  0  0  0  0
    1.4598    0.0000    0.0000 C   0  0  0  0  0  0  0  0  0  0  0  0
    2.1742    1.2375    0.0000 C   0  0  0  0  0  0  0  0  0  0  0  0
   -2.1126    2.0625    0.0000 O   0  0  0  0  0  0  0  0  0  0  0  0
   -3.6117    1.0799    0.0000 N   0  0  0  0  0  0  0  0  0  0  0  0
   -4.0966    0.4125    0.0000 C   0  0  0  0  0  0  0  0  0  0  0  0
   -3.6117   -0.2549    0.0000 S   0  0  0  0  0  0  0  0  0  0  0  0
   -4.9216    0.4125    0.0000 C   0  0  0  0  0  0  0  0  0  0  0  0
   -5.3341    1.1270    0.0000 C   0  0  0  0  0  0  0  0  0  0  0  0
   -5.3341   -0.3020    0.0000 C   0  0  0  0  0  0  0  0  0  0  0  0
   -5.7466    0.4125    0.0000 C   0  0  0  0  0  0  0  0  0  0  0  0
    3.6032   -1.2375    0.0000 C   0  0  0  0  0  0  0  0  0  0  0  0
    4.3177   -0.8250    0.0000 C   0  0  0  0  0  0  0  0  0  0  0  0
    4.3177    0.0000    0.0000 C   0  0  0  0  0  0  0  0  0  0  0  0
    3.6032    0.4125    0.0000 N   0  0  0  0  0  0  0  0  0  0  0  0
    5.0321   -1.2375    0.0000 S   0  0  0  0  0  0  0  0  0  0  0  0
    5.7466   -0.8250    0.0000 C   0  0  0  0  0  0  0  0  0  0  0  0
  1  2  4  0  0  0  0
  2  3  1  0  0  0  0
  3  4  1  0  0  0  0
  4  5  1  0  0  0  0
  5  6  1  0  0  0  0
  6  1  1  0  0  0  0
  4  7  1  0  0  0  0
  7  8  1  0  0  0  0
  8  9  1  0  0  0  0
  9 10  1  0  0  0  0
 10 11  1  0  0  0  0
 11  4  1  0  0  0  0
  9 12  1  0  0  0  0
 12 13  1  0  0  0  0
 12 14  2  0  0  0  0
 13 15  4  0  0  0  0
 15 16  4  0  0  0  0
 16 17  4  0  0  0  0
 17 18  4  0  0  0  0
 18 19  4  0  0  0  0
 19 13  4  0  0  0  0
 18 20  1  0  0  0  0
  6 21  2  0  0  0  0
  1 22  4  0  0  0  0
 22 23  4  0  0  0  0
 23 24  4  0  0  0  0
 24  2  4  0  0  0  0
 23 25  1  0  0  0  0
 25 26  1  0  0  0  0
 25 27  1  0  0  0  0
 25 28  1  0  0  0  0
 16 29  4  0  0  0  0
 29 30  4  0  0  0  0
 30 31  4  0  0  0  0
 31 32  4  0  0  0  0
 32 17  4  0  0  0  0
 30 33  1  0  0  0  0
 33 34  1  0  0  0  0
M  END
> <From>
www.bindingDB.org

> <BindingDB Reactant_set_id>
1397222

> <Ligand InChI>
InChI=1S/C27H31N3O2S2/c1-16-10-18(11-17-12-19(33-5)15-28-22(16)17)24(32)30-8-6-27(7-9-30)13-20(31)23-21(14-27)34-25(29-23)26(2,3)4/h10-12,15H,6-9,13-14H2,1-5H3

> <Ligand InChI Key>
AXBRNLJUVWCCOS-UHFFFAOYSA-N

> <BindingDB MonomerID>
663840

> <BindingDB Ligand Name>
US20240109915, Example 21

> <Target Name>
Activating signal cointegrator 1 complex subunit 1

> <Target Source Organism According to Curator or DataSource>


> <Ki (nM)>


> <IC50 (nM)>
 3.60

> <Kd (nM)>


> <EC50 (nM)>


> <kon (M-1-s-1)>


> <koff (s-1)>


> <pH>


> <Temp C>


> <Curation/DataSource>
US Patent

> <Article DOI>


> <BindingDB Entry DOI>
10.7270/Q2348QQ2

> <PMID>


> <PubChem AID>


> <Patent Number>
US20240109915

> <Authors>
Bagley, SW; Bootsma, AN; Choi, C; Dow, RL; Edmonds, DJ; Garcia-Irizarry, CN; Gerstenberger, BS; Ingle, G; O''Brien, JG; Parikh, MD; Rescourio, GC; Schmitt, DC

> <Institution>
Pfizer

> <Link to Ligand in BindingDB>
http://www.bindingdb.org/bind/chemsearch/marvin/MolStructure.jsp?monomerid=663840

> <Link to Ligand-Target Pair in BindingDB>
http://www.bindingdb.org/jsp/dbsearch/PrimarySearch_ki.jsp?energyterm=kJ/mole&tag=pol&polymerid=735&target=Activating+signal+cointegrator+1+complex+subunit+1&column=ki&startPg=0&Increment=50&submit=Search

> <Link to Ligand-Target Pair in BindingDB>
http://www.bindingdb.org/jsp/dbsearch/PrimarySearch_ki.jsp?energyterm=kJ/mole&tag=r21&monomerid=663840&enzyme=Activating+signal+cointegrator+1+complex+subunit+1&column=ki&startPg=0&Increment=50&submit=Search

> <Ligand HET ID in PDB>


> <PDB ID(s) for Ligand-Target Complex>


> <PubChem CID>


> <PubChem SID>


> <ChEBI ID of Ligand>


> <ChEMBL ID of Ligand>


> <DrugBank ID of Ligand>


> <IUPHAR_GRAC ID of Ligand>


> <KEGG ID of Ligand>


> <ZINC ID of Ligand>


> <Number of Protein Chains in Target (bigger than 1 implies a multichain complex)>
1

> <BindingDB Target Chain Sequence>
MEVLRPQLIRIDGRNYRKNPVQEQTYQHEEDEEDFYQGSMECADEPCDAYEVEQTPQGFRSTLRAPSLLYNLIHLNTSNDCGFQKITLDCQNIYTWKSRHIVGKRGDTRKKIEMETKTSISIPKPGQDGEIVITGQHRNGVISARTRIDVLLDTFRRKQPFTHFLAFFLNEVEVQEGFLRFQEEVLAKCSMDHGVDSSIFQNPKKLHLTIGMLVLLSEEEIQQTCEMLQQCKEEFINDISGGKPLEVEMAGIEYMNDDPGMVDVLYAKVHMKDGSNRLQELVDRVLERFQASGLIVKEWNSVKLHATVMNTLFRKDPNAEGRYNLYTAEGKYIFKERESFDGRNILKSFALLPRLEYNDAISAHCNLCLPGSSDSPASASQVAGITGVSDAYSQSLPGKS

> <PDB ID(s) of Target Chain>


> <UniProt (SwissProt) Recommended Name of Target Chain>
Activating signal cointegrator 1 complex subunit 1

> <UniProt (SwissProt) Entry Name of Target Chain>
ASCC1_HUMAN

> <UniProt (SwissProt) Primary ID of Target Chain>
Q8N9N2

> <UniProt (SwissProt) Secondary ID(s) of Target Chain>
Q5SW06 Q5SW07 Q96EI8 Q9Y307

> <UniProt (SwissProt) Alternative ID(s) of Target Chain>


> <UniProt (TrEMBL) Submitted Name of Target Chain>


> <UniProt (TrEMBL) Entry Name of Target Chain>


> <UniProt (TrEMBL) Primary ID of Target Chain>


> <UniProt (TrEMBL) Secondary ID(s) of Target Chain>


> <UniProt (TrEMBL) Alternative ID(s) of Target Chain>


$$$$
00297001.cdx
  Mrv0541 06272400352D          

 31 35  0  0  0  0            999 V2000
   -4.9524    0.4125    0.0000 C   0  0  0  0  0  0  0  0  0  0  0  0
   -4.1274    0.4125    0.0000 C   0  0  0  0  0  0  0  0  0  0  0  0
   -4.5399   -0.3020    0.0000 C   0  0  0  0  0  0  0  0  0  0  0  0
   -4.5399    1.1270    0.0000 C   0  0  0  0  0  0  0  0  0  0  0  0
   -3.3024    0.4125    0.0000 C   0  0  0  0  0  0  0  0  0  0  0  0
   -2.8175    1.0799    0.0000 N   0  0  0  0  0  0  0  0  0  0  0  0
   -2.8175   -0.2549    0.0000 S   0  0  0  0  0  0  0  0  0  0  0  0
   -1.3184   -0.4125    0.0000 C   0  0  0  0  0  0  0  0  0  0  0  0
   -0.6039    0.0000    0.0000 C   0  0  0  0  0  0  0  0  0  0  0  0
   -0.6039   -0.8250    0.0000 C   0  0  0  0  0  0  0  0  0  0  0  0
   -2.0329    0.0000    0.0000 C   0  0  0  0  0  0  0  0  0  0  0  0
   -2.0329    0.8250    0.0000 C   0  0  0  0  0  0  0  0  0  0  0  0
   -1.3184    1.2375    0.0000 C   0  0  0  0  0  0  0  0  0  0  0  0
   -1.3184    2.0625    0.0000 O   0  0  0  0  0  0  0  0  0  0  0  0
   -0.6039    0.8250    0.0000 C   0  0  0  0  0  0  0  0  0  0  0  0
    0.1105    0.4125    0.0000 C   0  0  0  0  0  0  0  0  0  0  0  0
    0.8250    0.0000    0.0000 C   0  0  0  0  0  0  0  0  0  0  0  0
    0.8250   -0.8250    0.0000 N   0  0  0  0  0  0  0  0  0  0  0  0
    0.1105   -1.2375    0.0000 C   0  0  0  0  0  0  0  0  0  0  0  0
    1.5395   -1.2375    0.0000 C   0  0  0  0  0  0  0  0  0  0  0  0
    2.2539   -0.8250    0.0000 C   0  0  0  0  0  0  0  0  0  0  0  0
    2.2539    0.0000    0.0000 C   0  0  0  0  0  0  0  0  0  0  0  0
    2.9684    0.4125    0.0000 C   0  0  0  0  0  0  0  0  0  0  0  0
    2.9684    1.2375    0.0000 C   0  0  0  0  0  0  0  0  0  0  0  0
    3.6829    0.0000    0.0000 C   0  0  0  0  0  0  0  0  0  0  0  0
    4.4675    0.2549    0.0000 C   0  0  0  0  0  0  0  0  0  0  0  0
    4.9524   -0.4125    0.0000 C   0  0  0  0  0  0  0  0  0  0  0  0
    4.4675   -1.0799    0.0000 N   0  0  0  0  0  0  0  0  0  0  0  0
    3.6829   -0.8250    0.0000 C   0  0  0  0  0  0  0  0  0  0  0  0
    2.9684   -1.2375    0.0000 C   0  0  0  0  0  0  0  0  0  0  0  0
    1.5395   -2.0625    0.0000 O   0  0  0  0  0  0  0  0  0  0  0  0
  1  2  1  0  0  0  0
  2  3  1  0  0  0  0
  2  4  1  0  0  0  0
  2  5  1  0  0  0  0
  5  6  4  0  0  0  0
  5  7  4  0  0  0  0
  6 12  4  0  0  0  0
  7 11  4  0  0  0  0
  8  9  1  0  0  0  0
  8 11  1  0  0  0  0
  9 10  1  0  0  0  0
  9 15  1  0  0  0  0
  9 16  1  0  0  0  0
 10 19  1  0  0  0  0
 11 12  4  0  0  0  0
 12 13  1  0  0  0  0
 13 14  2  0  0  0  0
 13 15  1  0  0  0  0
 16 17  1  0  0  0  0
 17 18  1  0  0  0  0
 18 19  1  0  0  0  0
 18 20  1  0  0  0  0
 20 31  2  0  0  0  0
 20 21  1  0  0  0  0
 21 22  4  0  0  0  0
 21 30  4  0  0  0  0
 22 23  4  0  0  0  0
 23 24  1  0  0  0  0
 23 25  4  0  0  0  0
 25 26  4  0  0  0  0
 25 29  4  0  0  0  0
 26 27  4  0  0  0  0
 27 28  4  0  0  0  0
 28 29  4  0  0  0  0
 29 30  4  0  0  0  0
M  STY  1   1 DAT
M  SAL   1  1  28
M  SDT   1 MRV_IMPLICIT_H                                        
M  SDD   1     0.0000    0.0000    DR    ALL  0       0  
M  SED   1 IMPL_H1
M  END
> <From>
www.bindingDB.org

> <BindingDB Reactant_set_id>
1397260

> <Ligand InChI>
InChI=1S/C25H29N3O2S/c1-15-11-16(12-18-17(15)5-8-26-18)22(30)28-9-6-25(7-10-28)13-19(29)21-20(14-25)31-23(27-21)24(2,3)4/h5,8,11-12,26H,6-7,9-10,13-14H2,1-4H3

> <Ligand InChI Key>
TZDRGPQQDDRHCI-UHFFFAOYSA-N

> <BindingDB MonomerID>
663878

> <BindingDB Ligand Name>
US20240109915, Example 62

> <Target Name>
Activating signal cointegrator 1 complex subunit 1

> <Target Source Organism According to Curator or DataSource>


> <Ki (nM)>


> <IC50 (nM)>
 3.60

> <Kd (nM)>


> <EC50 (nM)>


> <kon (M-1-s-1)>


> <koff (s-1)>


> <pH>


> <Temp C>


> <Curation/DataSource>
US Patent

> <Article DOI>


> <BindingDB Entry DOI>
10.7270/Q2348QQ2

> <PMID>


> <PubChem AID>


> <Patent Number>
US20240109915

> <Authors>
Bagley, SW; Bootsma, AN; Choi, C; Dow, RL; Edmonds, DJ; Garcia-Irizarry, CN; Gerstenberger, BS; Ingle, G; O''Brien, JG; Parikh, MD; Rescourio, GC; Schmitt, DC

> <Institution>
Pfizer

> <Link to Ligand in BindingDB>
http://www.bindingdb.org/bind/chemsearch/marvin/MolStructure.jsp?monomerid=663878

> <Link to Ligand-Target Pair in BindingDB>
http://www.bindingdb.org/jsp/dbsearch/PrimarySearch_ki.jsp?energyterm=kJ/mole&tag=pol&polymerid=735&target=Activating+signal+cointegrator+1+complex+subunit+1&column=ki&startPg=0&Increment=50&submit=Search

> <Link to Ligand-Target Pair in BindingDB>
http://www.bindingdb.org/jsp/dbsearch/PrimarySearch_ki.jsp?energyterm=kJ/mole&tag=r21&monomerid=663878&enzyme=Activating+signal+cointegrator+1+complex+subunit+1&column=ki&startPg=0&Increment=50&submit=Search

> <Ligand HET ID in PDB>


> <PDB ID(s) for Ligand-Target Complex>


> <PubChem CID>


> <PubChem SID>


> <ChEBI ID of Ligand>


> <ChEMBL ID of Ligand>


> <DrugBank ID of Ligand>


> <IUPHAR_GRAC ID of Ligand>


> <KEGG ID of Ligand>


> <ZINC ID of Ligand>


> <Number of Protein Chains in Target (bigger than 1 implies a multichain complex)>
1

> <BindingDB Target Chain Sequence>
MEVLRPQLIRIDGRNYRKNPVQEQTYQHEEDEEDFYQGSMECADEPCDAYEVEQTPQGFRSTLRAPSLLYNLIHLNTSNDCGFQKITLDCQNIYTWKSRHIVGKRGDTRKKIEMETKTSISIPKPGQDGEIVITGQHRNGVISARTRIDVLLDTFRRKQPFTHFLAFFLNEVEVQEGFLRFQEEVLAKCSMDHGVDSSIFQNPKKLHLTIGMLVLLSEEEIQQTCEMLQQCKEEFINDISGGKPLEVEMAGIEYMNDDPGMVDVLYAKVHMKDGSNRLQELVDRVLERFQASGLIVKEWNSVKLHATVMNTLFRKDPNAEGRYNLYTAEGKYIFKERESFDGRNILKSFALLPRLEYNDAISAHCNLCLPGSSDSPASASQVAGITGVSDAYSQSLPGKS

> <PDB ID(s) of Target Chain>


> <UniProt (SwissProt) Recommended Name of Target Chain>
Activating signal cointegrator 1 complex subunit 1

> <UniProt (SwissProt) Entry Name of Target Chain>
ASCC1_HUMAN

> <UniProt (SwissProt) Primary ID of Target Chain>
Q8N9N2

> <UniProt (SwissProt) Secondary ID(s) of Target Chain>
Q5SW06 Q5SW07 Q96EI8 Q9Y307

> <UniProt (SwissProt) Alternative ID(s) of Target Chain>


> <UniProt (TrEMBL) Submitted Name of Target Chain>


> <UniProt (TrEMBL) Entry Name of Target Chain>


> <UniProt (TrEMBL) Primary ID of Target Chain>


> <UniProt (TrEMBL) Secondary ID(s) of Target Chain>


> <UniProt (TrEMBL) Alternative ID(s) of Target Chain>


$$$$
00334001.cdx
  Mrv0541 06272400352D          

 36 41  0  0  0  0            999 V2000
   -5.0321    0.7697    0.0000 C   0  0  0  0  0  0  0  0  0  0  0  0
   -4.2071    0.7697    0.0000 C   0  0  0  0  0  0  0  0  0  0  0  0
   -4.6196    1.4842    0.0000 C   0  0  0  0  0  0  0  0  0  0  0  0
   -4.6196    0.0553    0.0000 C   0  0  0  0  0  0  0  0  0  0  0  0
   -3.3821    0.7697    0.0000 C   0  0  0  0  0  0  0  0  0  0  0  0
   -2.8972    1.4372    0.0000 N   0  0  0  0  0  0  0  0  0  0  0  0
   -2.8972    0.1023    0.0000 S   0  0  0  0  0  0  0  0  0  0  0  0
   -0.6836    0.3572    0.0000 C   0  0  0  0  0  0  0  0  0  0  0  0
   -0.6836   -0.4678    0.0000 C   0  0  0  0  0  0  0  0  0  0  0  0
    0.0308   -0.8803    0.0000 C   0  0  0  0  0  0  0  0  0  0  0  0
   -1.3981   -0.0553    0.0000 C   0  0  0  0  0  0  0  0  0  0  0  0
   -2.1126    0.3572    0.0000 C   0  0  0  0  0  0  0  0  0  0  0  0
   -2.1126    1.1822    0.0000 C   0  0  0  0  0  0  0  0  0  0  0  0
   -1.3981    1.5947    0.0000 C   0  0  0  0  0  0  0  0  0  0  0  0
   -1.3981    2.4197    0.0000 O   0  0  0  0  0  0  0  0  0  0  0  0
   -0.6836    1.1822    0.0000 C   0  0  0  0  0  0  0  0  0  0  0  0
    0.0308    0.7697    0.0000 C   0  0  0  0  0  0  0  0  0  0  0  0
    0.7453    0.3572    0.0000 C   0  0  0  0  0  0  0  0  0  0  0  0
    0.7453   -0.4678    0.0000 N   0  0  0  0  0  0  0  0  0  0  0  0
    2.8887    1.5947    0.0000 O   0  0  0  0  0  0  0  0  0  0  0  0
    2.1742    2.0072    0.0000 C   0  0  0  0  0  0  0  0  0  0  0  0
    4.3177   -0.8803    0.0000 C   0  0  0  0  0  0  0  0  0  0  0  0
    4.3177   -1.7053    0.0000 C   0  0  0  0  0  0  0  0  0  0  0  0
    3.9052   -2.4197    0.0000 C   0  0  0  0  0  0  0  0  0  0  0  0
    3.6032   -0.4678    0.0000 C   0  0  0  0  0  0  0  0  0  0  0  0
    2.8887   -0.8803    0.0000 C   0  0  0  0  0  0  0  0  0  0  0  0
    2.1742   -0.4678    0.0000 C   0  0  0  0  0  0  0  0  0  0  0  0
    1.4598   -0.8803    0.0000 C   0  0  0  0  0  0  0  0  0  0  0  0
    1.4598   -1.7053    0.0000 O   0  0  0  0  0  0  0  0  0  0  0  0
    2.1742    0.3572    0.0000 C   0  0  0  0  0  0  0  0  0  0  0  0
    2.8887    0.7697    0.0000 C   0  0  0  0  0  0  0  0  0  0  0  0
    3.6032    0.3572    0.0000 C   0  0  0  0  0  0  0  0  0  0  0  0
    4.3177    0.7697    0.0000 C   0  0  0  0  0  0  0  0  0  0  0  0
    5.0321    0.3572    0.0000 C   0  0  0  0  0  0  0  0  0  0  0  0
    5.0321   -0.4678    0.0000 N   0  0  0  0  0  0  0  0  0  0  0  0
    4.7302   -2.4197    0.0000 C   0  0  0  0  0  0  0  0  0  0  0  0
  1  2  1  0  0  0  0
  2  3  1  0  0  0  0
  2  4  1  0  0  0  0
  2  5  1  0  0  0  0
  5  6  4  0  0  0  0
  5  7  4  0  0  0  0
  6 13  4  0  0  0  0
  7 12  4  0  0  0  0
  8  9  1  0  0  0  0
  8 11  1  0  0  0  0
  8 16  1  0  0  0  0
  8 17  1  0  0  0  0
  9 10  1  0  0  0  0
 10 19  1  0  0  0  0
 11 12  1  0  0  0  0
 12 13  4  0  0  0  0
 13 14  1  0  0  0  0
 14 15  2  0  0  0  0
 14 16  1  0  0  0  0
 17 18  1  0  0  0  0
 18 19  1  0  0  0  0
 19 28  1  0  0  0  0
 20 21  1  0  0  0  0
 20 31  1  0  0  0  0
 22 23  1  0  0  0  0
 22 25  4  0  0  0  0
 22 35  4  0  0  0  0
 23 24  1  0  0  0  0
 23 36  1  0  0  0  0
 24 36  1  0  0  0  0
 25 26  4  0  0  0  0
 25 32  4  0  0  0  0
 26 27  4  0  0  0  0
 27 28  1  0  0  0  0
 27 30  4  0  0  0  0
 28 29  2  0  0  0  0
 30 31  4  0  0  0  0
 31 32  4  0  0  0  0
 32 33  4  0  0  0  0
 33 34  4  0  0  0  0
 34 35  4  0  0  0  0
M  END
> <From>
www.bindingDB.org

> <BindingDB Reactant_set_id>
1397296

> <Ligand InChI>
InChI=1S/C29H33N3O3S/c1-28(2,3)27-31-25-21(33)15-29(16-23(25)36-27)8-11-32(12-9-29)26(34)18-13-20-19(22(14-18)35-4)7-10-30-24(20)17-5-6-17/h7,10,13-14,17H,5-6,8-9,11-12,15-16H2,1-4H3

> <Ligand InChI Key>
JKUFMDNRWJXUFM-UHFFFAOYSA-N

> <BindingDB MonomerID>
663914

> <BindingDB Ligand Name>
US20240109915, Example 99

> <Target Name>
Activating signal cointegrator 1 complex subunit 1

> <Target Source Organism According to Curator or DataSource>


> <Ki (nM)>


> <IC50 (nM)>
 3.90

> <Kd (nM)>


> <EC50 (nM)>


> <kon (M-1-s-1)>


> <koff (s-1)>


> <pH>


> <Temp C>


> <Curation/DataSource>
US Patent

> <Article DOI>


> <BindingDB Entry DOI>
10.7270/Q2348QQ2

> <PMID>


> <PubChem AID>


> <Patent Number>
US20240109915

> <Authors>
Bagley, SW; Bootsma, AN; Choi, C; Dow, RL; Edmonds, DJ; Garcia-Irizarry, CN; Gerstenberger, BS; Ingle, G; O''Brien, JG; Parikh, MD; Rescourio, GC; Schmitt, DC

> <Institution>
Pfizer

> <Link to Ligand in BindingDB>
http://www.bindingdb.org/bind/chemsearch/marvin/MolStructure.jsp?monomerid=663914

> <Link to Ligand-Target Pair in BindingDB>
http://www.bindingdb.org/jsp/dbsearch/PrimarySearch_ki.jsp?energyterm=kJ/mole&tag=pol&polymerid=735&target=Activating+signal+cointegrator+1+complex+subunit+1&column=ki&startPg=0&Increment=50&submit=Search

> <Link to Ligand-Target Pair in BindingDB>
http://www.bindingdb.org/jsp/dbsearch/PrimarySearch_ki.jsp?energyterm=kJ/mole&tag=r21&monomerid=663914&enzyme=Activating+signal+cointegrator+1+complex+subunit+1&column=ki&startPg=0&Increment=50&submit=Search

> <Ligand HET ID in PDB>


> <PDB ID(s) for Ligand-Target Complex>


> <PubChem CID>


> <PubChem SID>


> <ChEBI ID of Ligand>


> <ChEMBL ID of Ligand>


> <DrugBank ID of Ligand>


> <IUPHAR_GRAC ID of Ligand>


> <KEGG ID of Ligand>


> <ZINC ID of Ligand>


> <Number of Protein Chains in Target (bigger than 1 implies a multichain complex)>
1

> <BindingDB Target Chain Sequence>
MEVLRPQLIRIDGRNYRKNPVQEQTYQHEEDEEDFYQGSMECADEPCDAYEVEQTPQGFRSTLRAPSLLYNLIHLNTSNDCGFQKITLDCQNIYTWKSRHIVGKRGDTRKKIEMETKTSISIPKPGQDGEIVITGQHRNGVISARTRIDVLLDTFRRKQPFTHFLAFFLNEVEVQEGFLRFQEEVLAKCSMDHGVDSSIFQNPKKLHLTIGMLVLLSEEEIQQTCEMLQQCKEEFINDISGGKPLEVEMAGIEYMNDDPGMVDVLYAKVHMKDGSNRLQELVDRVLERFQASGLIVKEWNSVKLHATVMNTLFRKDPNAEGRYNLYTAEGKYIFKERESFDGRNILKSFALLPRLEYNDAISAHCNLCLPGSSDSPASASQVAGITGVSDAYSQSLPGKS

> <PDB ID(s) of Target Chain>


> <UniProt (SwissProt) Recommended Name of Target Chain>
Activating signal cointegrator 1 complex subunit 1

> <UniProt (SwissProt) Entry Name of Target Chain>
ASCC1_HUMAN

> <UniProt (SwissProt) Primary ID of Target Chain>
Q8N9N2

> <UniProt (SwissProt) Secondary ID(s) of Target Chain>
Q5SW06 Q5SW07 Q96EI8 Q9Y307

> <UniProt (SwissProt) Alternative ID(s) of Target Chain>


> <UniProt (TrEMBL) Submitted Name of Target Chain>


> <UniProt (TrEMBL) Entry Name of Target Chain>


> <UniProt (TrEMBL) Primary ID of Target Chain>


> <UniProt (TrEMBL) Secondary ID(s) of Target Chain>


> <UniProt (TrEMBL) Alternative ID(s) of Target Chain>


$$$$
00303001.cdx
  Mrv0541 06272400352D          

 36 40  0  0  0  0            999 V2000
    4.3177   -2.4750    0.0000 C   0  0  0  0  0  0  0  0  0  0  0  0
    4.3177   -1.6500    0.0000 N   0  0  0  0  0  0  0  0  0  0  0  0
   -5.0321    0.0000    0.0000 C   0  0  0  0  0  0  0  0  0  0  0  0
   -4.2071    0.0000    0.0000 C   0  0  0  0  0  0  0  0  0  0  0  0
   -4.6196   -0.7145    0.0000 C   0  0  0  0  0  0  0  0  0  0  0  0
   -4.6196    0.7145    0.0000 C   0  0  0  0  0  0  0  0  0  0  0  0
   -3.3821    0.0000    0.0000 C   0  0  0  0  0  0  0  0  0  0  0  0
   -2.8972    0.6674    0.0000 N   0  0  0  0  0  0  0  0  0  0  0  0
   -2.8972   -0.6674    0.0000 S   0  0  0  0  0  0  0  0  0  0  0  0
   -0.6836   -0.4125    0.0000 C   0  0  0  0  0  0  0  0  0  0  0  0
   -0.6836   -1.2375    0.0000 C   0  0  0  0  0  0  0  0  0  0  0  0
    0.0308   -1.6500    0.0000 C   0  0  0  0  0  0  0  0  0  0  0  0
   -1.3981   -0.8250    0.0000 C   0  0  0  0  0  0  0  0  0  0  0  0
   -2.1126   -0.4125    0.0000 C   0  0  0  0  0  0  0  0  0  0  0  0
   -2.1126    0.4125    0.0000 C   0  0  0  0  0  0  0  0  0  0  0  0
   -1.3981    0.8250    0.0000 C   0  0  0  0  0  0  0  0  0  0  0  0
   -1.3981    1.6500    0.0000 O   0  0  0  0  0  0  0  0  0  0  0  0
   -0.6836    0.4125    0.0000 C   0  0  0  0  0  0  0  0  0  0  0  0
    0.0308    0.0000    0.0000 C   0  0  0  0  0  0  0  0  0  0  0  0
    0.7453   -0.4125    0.0000 C   0  0  0  0  0  0  0  0  0  0  0  0
    0.7453   -1.2375    0.0000 N   0  0  0  0  0  0  0  0  0  0  0  0
    1.4598   -1.6500    0.0000 C   0  0  0  0  0  0  0  0  0  0  0  0
    1.4598   -2.4750    0.0000 O   0  0  0  0  0  0  0  0  0  0  0  0
    2.1742   -1.2375    0.0000 C   0  0  0  0  0  0  0  0  0  0  0  0
    2.1742   -0.4125    0.0000 C   0  0  0  0  0  0  0  0  0  0  0  0
    2.8887    0.0000    0.0000 C   0  0  0  0  0  0  0  0  0  0  0  0
    2.8887    0.8250    0.0000 C   0  0  0  0  0  0  0  0  0  0  0  0
    2.1742    1.2375    0.0000 C   0  0  0  0  0  0  0  0  0  0  0  0
    2.1742    2.0625    0.0000 C   0  0  0  0  0  0  0  0  0  0  0  0
    2.8887    2.4750    0.0000 C   0  0  0  0  0  0  0  0  0  0  0  0
    3.6032    2.0625    0.0000 C   0  0  0  0  0  0  0  0  0  0  0  0
    3.6032    1.2375    0.0000 C   0  0  0  0  0  0  0  0  0  0  0  0
    2.8887   -1.6500    0.0000 C   0  0  0  0  0  0  0  0  0  0  0  0
    3.6032   -1.2375    0.0000 C   0  0  0  0  0  0  0  0  0  0  0  0
    3.6032   -0.4125    0.0000 N   0  0  0  0  0  0  0  0  0  0  0  0
    5.0321   -1.2375    0.0000 C   0  0  0  0  0  0  0  0  0  0  0  0
  1  2  1  0  0  0  0
  2 34  1  0  0  0  0
  2 36  1  0  0  0  0
  3  4  1  0  0  0  0
  4  5  1  0  0  0  0
  4  6  1  0  0  0  0
  4  7  1  0  0  0  0
  7  8  4  0  0  0  0
  7  9  4  0  0  0  0
  8 15  4  0  0  0  0
  9 14  4  0  0  0  0
 10 11  1  0  0  0  0
 10 13  1  0  0  0  0
 10 18  1  0  0  0  0
 10 19  1  0  0  0  0
 11 12  1  0  0  0  0
 12 21  1  0  0  0  0
 13 14  1  0  0  0  0
 14 15  4  0  0  0  0
 15 16  1  0  0  0  0
 16 17  2  0  0  0  0
 16 18  1  0  0  0  0
 19 20  1  0  0  0  0
 20 21  1  0  0  0  0
 21 22  1  0  0  0  0
 22 23  2  0  0  0  0
 22 24  1  0  0  0  0
 24 25  4  0  0  0  0
 24 33  4  0  0  0  0
 25 26  4  0  0  0  0
 26 27  1  0  0  0  0
 26 35  4  0  0  0  0
 27 28  4  0  0  0  0
 27 32  4  0  0  0  0
 28 29  4  0  0  0  0
 29 30  4  0  0  0  0
 30 31  4  0  0  0  0
 31 32  4  0  0  0  0
 33 34  4  0  0  0  0
 34 35  4  0  0  0  0
M  END
> <From>
www.bindingDB.org

> <BindingDB Reactant_set_id>
1397265

> <Ligand InChI>
InChI=1S/C29H34N4O2S/c1-28(2,3)27-31-25-22(34)17-29(18-23(25)36-27)11-13-33(14-12-29)26(35)20-15-21(19-9-7-6-8-10-19)30-24(16-20)32(4)5/h6-10,15-16H,11-14,17-18H2,1-5H3

> <Ligand InChI Key>
UGMIZAJVORRXBY-UHFFFAOYSA-N

> <BindingDB MonomerID>
663883

> <BindingDB Ligand Name>
US20240109915, Example 68

> <Target Name>
Activating signal cointegrator 1 complex subunit 1

> <Target Source Organism According to Curator or DataSource>


> <Ki (nM)>


> <IC50 (nM)>
 3.90

> <Kd (nM)>


> <EC50 (nM)>


> <kon (M-1-s-1)>


> <koff (s-1)>


> <pH>


> <Temp C>


> <Curation/DataSource>
US Patent

> <Article DOI>


> <BindingDB Entry DOI>
10.7270/Q2348QQ2

> <PMID>


> <PubChem AID>


> <Patent Number>
US20240109915

> <Authors>
Bagley, SW; Bootsma, AN; Choi, C; Dow, RL; Edmonds, DJ; Garcia-Irizarry, CN; Gerstenberger, BS; Ingle, G; O''Brien, JG; Parikh, MD; Rescourio, GC; Schmitt, DC

> <Institution>
Pfizer

> <Link to Ligand in BindingDB>
http://www.bindingdb.org/bind/chemsearch/marvin/MolStructure.jsp?monomerid=663883

> <Link to Ligand-Target Pair in BindingDB>
http://www.bindingdb.org/jsp/dbsearch/PrimarySearch_ki.jsp?energyterm=kJ/mole&tag=pol&polymerid=735&target=Activating+signal+cointegrator+1+complex+subunit+1&column=ki&startPg=0&Increment=50&submit=Search

> <Link to Ligand-Target Pair in BindingDB>
http://www.bindingdb.org/jsp/dbsearch/PrimarySearch_ki.jsp?energyterm=kJ/mole&tag=r21&monomerid=663883&enzyme=Activating+signal+cointegrator+1+complex+subunit+1&column=ki&startPg=0&Increment=50&submit=Search

> <Ligand HET ID in PDB>


> <PDB ID(s) for Ligand-Target Complex>


> <PubChem CID>


> <PubChem SID>


> <ChEBI ID of Ligand>


> <ChEMBL ID of Ligand>


> <DrugBank ID of Ligand>


> <IUPHAR_GRAC ID of Ligand>


> <KEGG ID of Ligand>


> <ZINC ID of Ligand>


> <Number of Protein Chains in Target (bigger than 1 implies a multichain complex)>
1

> <BindingDB Target Chain Sequence>
MEVLRPQLIRIDGRNYRKNPVQEQTYQHEEDEEDFYQGSMECADEPCDAYEVEQTPQGFRSTLRAPSLLYNLIHLNTSNDCGFQKITLDCQNIYTWKSRHIVGKRGDTRKKIEMETKTSISIPKPGQDGEIVITGQHRNGVISARTRIDVLLDTFRRKQPFTHFLAFFLNEVEVQEGFLRFQEEVLAKCSMDHGVDSSIFQNPKKLHLTIGMLVLLSEEEIQQTCEMLQQCKEEFINDISGGKPLEVEMAGIEYMNDDPGMVDVLYAKVHMKDGSNRLQELVDRVLERFQASGLIVKEWNSVKLHATVMNTLFRKDPNAEGRYNLYTAEGKYIFKERESFDGRNILKSFALLPRLEYNDAISAHCNLCLPGSSDSPASASQVAGITGVSDAYSQSLPGKS

> <PDB ID(s) of Target Chain>


> <UniProt (SwissProt) Recommended Name of Target Chain>
Activating signal cointegrator 1 complex subunit 1

> <UniProt (SwissProt) Entry Name of Target Chain>
ASCC1_HUMAN

> <UniProt (SwissProt) Primary ID of Target Chain>
Q8N9N2

> <UniProt (SwissProt) Secondary ID(s) of Target Chain>
Q5SW06 Q5SW07 Q96EI8 Q9Y307

> <UniProt (SwissProt) Alternative ID(s) of Target Chain>


> <UniProt (TrEMBL) Submitted Name of Target Chain>


> <UniProt (TrEMBL) Entry Name of Target Chain>


> <UniProt (TrEMBL) Primary ID of Target Chain>


> <UniProt (TrEMBL) Secondary ID(s) of Target Chain>


> <UniProt (TrEMBL) Alternative ID(s) of Target Chain>


$$$$
00266001.cdx
  Mrv0541 06272400352D          

 36 41  0  0  0  0            999 V2000
   -3.3323    0.8250    0.0000 C   0  0  0  0  0  0  0  0  0  0  0  0
   -3.3323    0.0000    0.0000 C   0  0  0  0  0  0  0  0  0  0  0  0
   -2.6178   -0.4125    0.0000 C   0  0  0  0  0  0  0  0  0  0  0  0
   -1.9033    0.0000    0.0000 C   0  0  0  0  0  0  0  0  0  0  0  0
   -1.9033    0.8250    0.0000 C   0  0  0  0  0  0  0  0  0  0  0  0
   -2.6178    1.2375    0.0000 C   0  0  0  0  0  0  0  0  0  0  0  0
   -1.9033   -0.8250    0.0000 C   0  0  0  0  0  0  0  0  0  0  0  0
   -1.1888   -1.2375    0.0000 C   0  0  0  0  0  0  0  0  0  0  0  0
   -0.4744   -0.8250    0.0000 N   0  0  0  0  0  0  0  0  0  0  0  0
   -0.4744    0.0000    0.0000 C   0  0  0  0  0  0  0  0  0  0  0  0
   -1.1888    0.4125    0.0000 C   0  0  0  0  0  0  0  0  0  0  0  0
    0.2401   -1.2375    0.0000 C   0  0  0  0  0  0  0  0  0  0  0  0
    0.9546   -0.8250    0.0000 C   0  0  0  0  0  0  0  0  0  0  0  0
    0.2401   -2.0625    0.0000 O   0  0  0  0  0  0  0  0  0  0  0  0
    1.6690   -1.2375    0.0000 C   0  0  0  0  0  0  0  0  0  0  0  0
    2.3835   -0.8250    0.0000 C   0  0  0  0  0  0  0  0  0  0  0  0
    2.3835    0.0000    0.0000 C   0  0  0  0  0  0  0  0  0  0  0  0
    1.6690    0.4125    0.0000 C   0  0  0  0  0  0  0  0  0  0  0  0
    0.9546    0.0000    0.0000 C   0  0  0  0  0  0  0  0  0  0  0  0
   -2.6178    2.0625    0.0000 O   0  0  0  0  0  0  0  0  0  0  0  0
   -4.1169    1.0799    0.0000 N   0  0  0  0  0  0  0  0  0  0  0  0
   -4.6018    0.4125    0.0000 C   0  0  0  0  0  0  0  0  0  0  0  0
   -4.1169   -0.2549    0.0000 S   0  0  0  0  0  0  0  0  0  0  0  0
   -5.4268    0.4125    0.0000 C   0  0  0  0  0  0  0  0  0  0  0  0
   -5.8393    1.1270    0.0000 C   0  0  0  0  0  0  0  0  0  0  0  0
   -5.8393   -0.3020    0.0000 C   0  0  0  0  0  0  0  0  0  0  0  0
   -6.2518    0.4125    0.0000 C   0  0  0  0  0  0  0  0  0  0  0  0
    3.0980   -1.2375    0.0000 N   0  0  0  0  0  0  0  0  0  0  0  0
    3.8124   -0.8250    0.0000 C   0  0  0  0  0  0  0  0  0  0  0  0
    3.8124    0.0000    0.0000 C   0  0  0  0  0  0  0  0  0  0  0  0
    3.0980    0.4125    0.0000 C   0  0  0  0  0  0  0  0  0  0  0  0
    4.5269   -1.2375    0.0000 N   0  0  0  0  0  0  0  0  0  0  0  0
    5.2414   -0.8250    0.0000 C   0  0  0  0  0  0  0  0  0  0  0  0
    6.0383   -1.0385    0.0000 C   0  0  0  0  0  0  0  0  0  0  0  0
    6.2518   -0.2416    0.0000 C   0  0  0  0  0  0  0  0  0  0  0  0
    5.4549   -0.0281    0.0000 C   0  0  0  0  0  0  0  0  0  0  0  0
  1  2  4  0  0  0  0
  2  3  1  0  0  0  0
  3  4  1  0  0  0  0
  4  5  1  0  0  0  0
  5  6  1  0  0  0  0
  6  1  1  0  0  0  0
  4  7  1  0  0  0  0
  7  8  1  0  0  0  0
  8  9  1  0  0  0  0
  9 10  1  0  0  0  0
 10 11  1  0  0  0  0
 11  4  1  0  0  0  0
  9 12  1  0  0  0  0
 12 13  1  0  0  0  0
 12 14  2  0  0  0  0
 13 15  4  0  0  0  0
 15 16  4  0  0  0  0
 16 17  4  0  0  0  0
 17 18  4  0  0  0  0
 18 19  4  0  0  0  0
 19 13  4  0  0  0  0
  6 20  2  0  0  0  0
  1 21  4  0  0  0  0
 21 22  4  0  0  0  0
 22 23  4  0  0  0  0
 23  2  4  0  0  0  0
 22 24  1  0  0  0  0
 24 25  1  0  0  0  0
 24 26  1  0  0  0  0
 24 27  1  0  0  0  0
 16 28  4  0  0  0  0
 28 29  4  0  0  0  0
 29 30  4  0  0  0  0
 30 31  4  0  0  0  0
 31 17  4  0  0  0  0
 29 32  1  0  0  0  0
 32 33  1  0  0  0  0
 33 34  1  0  0  0  0
 34 35  1  0  0  0  0
 35 36  1  0  0  0  0
 36 33  1  0  0  0  0
M  END
> <From>
www.bindingDB.org

> <BindingDB Reactant_set_id>
1397231

> <Ligand InChI>
InChI=1S/C29H34N4O2S/c1-28(2,3)27-32-25-22(34)16-29(17-23(25)36-27)11-13-33(14-12-29)26(35)19-8-7-18-9-10-24(31-21(18)15-19)30-20-5-4-6-20/h7-10,15,20H,4-6,11-14,16-17H2,1-3H3,(H,30,31)

> <Ligand InChI Key>
HVMCGPBVVUCMHY-UHFFFAOYSA-N

> <BindingDB MonomerID>
663849

> <BindingDB Ligand Name>
US20240109915, Example 31

> <Target Name>
Activating signal cointegrator 1 complex subunit 1

> <Target Source Organism According to Curator or DataSource>


> <Ki (nM)>


> <IC50 (nM)>
 4.00

> <Kd (nM)>


> <EC50 (nM)>


> <kon (M-1-s-1)>


> <koff (s-1)>


> <pH>


> <Temp C>


> <Curation/DataSource>
US Patent

> <Article DOI>


> <BindingDB Entry DOI>
10.7270/Q2348QQ2

> <PMID>


> <PubChem AID>


> <Patent Number>
US20240109915

> <Authors>
Bagley, SW; Bootsma, AN; Choi, C; Dow, RL; Edmonds, DJ; Garcia-Irizarry, CN; Gerstenberger, BS; Ingle, G; O''Brien, JG; Parikh, MD; Rescourio, GC; Schmitt, DC

> <Institution>
Pfizer

> <Link to Ligand in BindingDB>
http://www.bindingdb.org/bind/chemsearch/marvin/MolStructure.jsp?monomerid=663849

> <Link to Ligand-Target Pair in BindingDB>
http://www.bindingdb.org/jsp/dbsearch/PrimarySearch_ki.jsp?energyterm=kJ/mole&tag=pol&polymerid=735&target=Activating+signal+cointegrator+1+complex+subunit+1&column=ki&startPg=0&Increment=50&submit=Search

> <Link to Ligand-Target Pair in BindingDB>
http://www.bindingdb.org/jsp/dbsearch/PrimarySearch_ki.jsp?energyterm=kJ/mole&tag=r21&monomerid=663849&enzyme=Activating+signal+cointegrator+1+complex+subunit+1&column=ki&startPg=0&Increment=50&submit=Search

> <Ligand HET ID in PDB>


> <PDB ID(s) for Ligand-Target Complex>


> <PubChem CID>


> <PubChem SID>


> <ChEBI ID of Ligand>


> <ChEMBL ID of Ligand>


> <DrugBank ID of Ligand>


> <IUPHAR_GRAC ID of Ligand>


> <KEGG ID of Ligand>


> <ZINC ID of Ligand>


> <Number of Protein Chains in Target (bigger than 1 implies a multichain complex)>
1

> <BindingDB Target Chain Sequence>
MEVLRPQLIRIDGRNYRKNPVQEQTYQHEEDEEDFYQGSMECADEPCDAYEVEQTPQGFRSTLRAPSLLYNLIHLNTSNDCGFQKITLDCQNIYTWKSRHIVGKRGDTRKKIEMETKTSISIPKPGQDGEIVITGQHRNGVISARTRIDVLLDTFRRKQPFTHFLAFFLNEVEVQEGFLRFQEEVLAKCSMDHGVDSSIFQNPKKLHLTIGMLVLLSEEEIQQTCEMLQQCKEEFINDISGGKPLEVEMAGIEYMNDDPGMVDVLYAKVHMKDGSNRLQELVDRVLERFQASGLIVKEWNSVKLHATVMNTLFRKDPNAEGRYNLYTAEGKYIFKERESFDGRNILKSFALLPRLEYNDAISAHCNLCLPGSSDSPASASQVAGITGVSDAYSQSLPGKS

> <PDB ID(s) of Target Chain>


> <UniProt (SwissProt) Recommended Name of Target Chain>
Activating signal cointegrator 1 complex subunit 1

> <UniProt (SwissProt) Entry Name of Target Chain>
ASCC1_HUMAN

> <UniProt (SwissProt) Primary ID of Target Chain>
Q8N9N2

> <UniProt (SwissProt) Secondary ID(s) of Target Chain>
Q5SW06 Q5SW07 Q96EI8 Q9Y307

> <UniProt (SwissProt) Alternative ID(s) of Target Chain>


> <UniProt (TrEMBL) Submitted Name of Target Chain>


> <UniProt (TrEMBL) Entry Name of Target Chain>


> <UniProt (TrEMBL) Primary ID of Target Chain>


> <UniProt (TrEMBL) Secondary ID(s) of Target Chain>


> <UniProt (TrEMBL) Alternative ID(s) of Target Chain>


$$$$
00314001.cdx
  Mrv0541 06272400352D          

 32 36  0  0  0  0            999 V2000
   -3.3024    0.4125    0.0000 C   0  0  0  0  0  0  0  0  0  0  0  0
   -2.8175    1.0799    0.0000 N   0  0  0  0  0  0  0  0  0  0  0  0
   -4.1274    0.4125    0.0000 C   0  0  0  0  0  0  0  0  0  0  0  0
   -2.8175   -0.2549    0.0000 S   0  0  0  0  0  0  0  0  0  0  0  0
   -4.9524    0.4125    0.0000 C   0  0  0  0  0  0  0  0  0  0  0  0
   -4.5399    1.1270    0.0000 C   0  0  0  0  0  0  0  0  0  0  0  0
   -4.5399   -0.3020    0.0000 C   0  0  0  0  0  0  0  0  0  0  0  0
   -1.3184   -0.4125    0.0000 C   0  0  0  0  0  0  0  0  0  0  0  0
   -0.6039    0.0000    0.0000 C   0  0  0  0  0  0  0  0  0  0  0  0
   -0.6039   -0.8250    0.0000 C   0  0  0  0  0  0  0  0  0  0  0  0
   -2.0329    0.0000    0.0000 C   0  0  0  0  0  0  0  0  0  0  0  0
   -2.0329    0.8250    0.0000 C   0  0  0  0  0  0  0  0  0  0  0  0
   -1.3184    1.2375    0.0000 C   0  0  0  0  0  0  0  0  0  0  0  0
   -1.3184    2.0625    0.0000 O   0  0  0  0  0  0  0  0  0  0  0  0
   -0.6039    0.8250    0.0000 C   0  0  0  0  0  0  0  0  0  0  0  0
    0.1105    0.4125    0.0000 C   0  0  0  0  0  0  0  0  0  0  0  0
    0.8250    0.0000    0.0000 C   0  0  0  0  0  0  0  0  0  0  0  0
    0.8250   -0.8250    0.0000 N   0  0  0  0  0  0  0  0  0  0  0  0
    0.1105   -1.2375    0.0000 C   0  0  0  0  0  0  0  0  0  0  0  0
    1.5395   -1.2375    0.0000 C   0  0  0  0  0  0  0  0  0  0  0  0
    1.5395   -2.0625    0.0000 O   0  0  0  0  0  0  0  0  0  0  0  0
    2.2539   -0.8250    0.0000 C   0  0  0  0  0  0  0  0  0  0  0  0
    2.2539    0.0000    0.0000 C   0  0  0  0  0  0  0  0  0  0  0  0
    2.9684    0.4125    0.0000 C   0  0  0  0  0  0  0  0  0  0  0  0
    2.9684    1.2375    0.0000 Cl  0  0  0  0  0  0  0  0  0  0  0  0
    3.6829    0.0000    0.0000 C   0  0  0  0  0  0  0  0  0  0  0  0
    4.4675    0.2549    0.0000 C   0  0  0  0  0  0  0  0  0  0  0  0
    4.9524   -0.4125    0.0000 C   0  0  0  0  0  0  0  0  0  0  0  0
    4.4675   -1.0799    0.0000 N   0  0  0  0  0  0  0  0  0  0  0  0
    3.6829   -0.8250    0.0000 C   0  0  0  0  0  0  0  0  0  0  0  0
    2.9684   -1.2375    0.0000 C   0  0  0  0  0  0  0  0  0  0  0  0
    4.7224   -1.8646    0.0000 C   0  0  0  0  0  0  0  0  0  0  0  0
  1  2  4  0  0  0  0
  1  3  1  0  0  0  0
  1  4  4  0  0  0  0
  2 12  4  0  0  0  0
  3  5  1  0  0  0  0
  3  6  1  0  0  0  0
  3  7  1  0  0  0  0
  4 11  4  0  0  0  0
  8  9  1  0  0  0  0
  8 11  1  0  0  0  0
  9 10  1  0  0  0  0
  9 15  1  0  0  0  0
  9 16  1  0  0  0  0
 10 19  1  0  0  0  0
 11 12  4  0  0  0  0
 12 13  1  0  0  0  0
 13 14  2  0  0  0  0
 13 15  1  0  0  0  0
 16 17  1  0  0  0  0
 17 18  1  0  0  0  0
 18 19  1  0  0  0  0
 18 20  1  0  0  0  0
 20 21  2  0  0  0  0
 20 22  1  0  0  0  0
 22 23  4  0  0  0  0
 22 31  4  0  0  0  0
 23 24  4  0  0  0  0
 24 25  1  0  0  0  0
 24 26  4  0  0  0  0
 26 27  4  0  0  0  0
 26 30  4  0  0  0  0
 27 28  4  0  0  0  0
 28 29  4  0  0  0  0
 29 30  4  0  0  0  0
 29 32  1  0  0  0  0
 30 31  4  0  0  0  0
M  END
> <From>
www.bindingDB.org

> <BindingDB Reactant_set_id>
1397276

> <Ligand InChI>
InChI=1S/C25H28ClN3O2S/c1-24(2,3)23-27-21-19(30)13-25(14-20(21)32-23)6-9-29(10-7-25)22(31)15-11-17(26)16-5-8-28(4)18(16)12-15/h5,8,11-12H,6-7,9-10,13-14H2,1-4H3

> <Ligand InChI Key>
HZITWRDHJVGCTA-UHFFFAOYSA-N

> <BindingDB MonomerID>
663894

> <BindingDB Ligand Name>
US20240109915, Example 79

> <Target Name>
Activating signal cointegrator 1 complex subunit 1

> <Target Source Organism According to Curator or DataSource>


> <Ki (nM)>


> <IC50 (nM)>
 4.10

> <Kd (nM)>


> <EC50 (nM)>


> <kon (M-1-s-1)>


> <koff (s-1)>


> <pH>


> <Temp C>


> <Curation/DataSource>
US Patent

> <Article DOI>


> <BindingDB Entry DOI>
10.7270/Q2348QQ2

> <PMID>


> <PubChem AID>


> <Patent Number>
US20240109915

> <Authors>
Bagley, SW; Bootsma, AN; Choi, C; Dow, RL; Edmonds, DJ; Garcia-Irizarry, CN; Gerstenberger, BS; Ingle, G; O''Brien, JG; Parikh, MD; Rescourio, GC; Schmitt, DC

> <Institution>
Pfizer

> <Link to Ligand in BindingDB>
http://www.bindingdb.org/bind/chemsearch/marvin/MolStructure.jsp?monomerid=663894

> <Link to Ligand-Target Pair in BindingDB>
http://www.bindingdb.org/jsp/dbsearch/PrimarySearch_ki.jsp?energyterm=kJ/mole&tag=pol&polymerid=735&target=Activating+signal+cointegrator+1+complex+subunit+1&column=ki&startPg=0&Increment=50&submit=Search

> <Link to Ligand-Target Pair in BindingDB>
http://www.bindingdb.org/jsp/dbsearch/PrimarySearch_ki.jsp?energyterm=kJ/mole&tag=r21&monomerid=663894&enzyme=Activating+signal+cointegrator+1+complex+subunit+1&column=ki&startPg=0&Increment=50&submit=Search

> <Ligand HET ID in PDB>


> <PDB ID(s) for Ligand-Target Complex>


> <PubChem CID>


> <PubChem SID>


> <ChEBI ID of Ligand>


> <ChEMBL ID of Ligand>


> <DrugBank ID of Ligand>


> <IUPHAR_GRAC ID of Ligand>


> <KEGG ID of Ligand>


> <ZINC ID of Ligand>


> <Number of Protein Chains in Target (bigger than 1 implies a multichain complex)>
1

> <BindingDB Target Chain Sequence>
MEVLRPQLIRIDGRNYRKNPVQEQTYQHEEDEEDFYQGSMECADEPCDAYEVEQTPQGFRSTLRAPSLLYNLIHLNTSNDCGFQKITLDCQNIYTWKSRHIVGKRGDTRKKIEMETKTSISIPKPGQDGEIVITGQHRNGVISARTRIDVLLDTFRRKQPFTHFLAFFLNEVEVQEGFLRFQEEVLAKCSMDHGVDSSIFQNPKKLHLTIGMLVLLSEEEIQQTCEMLQQCKEEFINDISGGKPLEVEMAGIEYMNDDPGMVDVLYAKVHMKDGSNRLQELVDRVLERFQASGLIVKEWNSVKLHATVMNTLFRKDPNAEGRYNLYTAEGKYIFKERESFDGRNILKSFALLPRLEYNDAISAHCNLCLPGSSDSPASASQVAGITGVSDAYSQSLPGKS

> <PDB ID(s) of Target Chain>


> <UniProt (SwissProt) Recommended Name of Target Chain>
Activating signal cointegrator 1 complex subunit 1

> <UniProt (SwissProt) Entry Name of Target Chain>
ASCC1_HUMAN

> <UniProt (SwissProt) Primary ID of Target Chain>
Q8N9N2

> <UniProt (SwissProt) Secondary ID(s) of Target Chain>
Q5SW06 Q5SW07 Q96EI8 Q9Y307

> <UniProt (SwissProt) Alternative ID(s) of Target Chain>


> <UniProt (TrEMBL) Submitted Name of Target Chain>


> <UniProt (TrEMBL) Entry Name of Target Chain>


> <UniProt (TrEMBL) Primary ID of Target Chain>


> <UniProt (TrEMBL) Secondary ID(s) of Target Chain>


> <UniProt (TrEMBL) Alternative ID(s) of Target Chain>


$$$$
00296001.cdx
  Mrv0541 06272400352D          

 32 36  0  0  0  0            999 V2000
   -4.9524    0.4125    0.0000 C   0  0  0  0  0  0  0  0  0  0  0  0
   -4.1274    0.4125    0.0000 C   0  0  0  0  0  0  0  0  0  0  0  0
   -4.5399   -0.3020    0.0000 C   0  0  0  0  0  0  0  0  0  0  0  0
   -4.5399    1.1270    0.0000 C   0  0  0  0  0  0  0  0  0  0  0  0
   -3.3024    0.4125    0.0000 C   0  0  0  0  0  0  0  0  0  0  0  0
   -2.8175    1.0799    0.0000 N   0  0  0  0  0  0  0  0  0  0  0  0
   -2.8175   -0.2549    0.0000 S   0  0  0  0  0  0  0  0  0  0  0  0
   -1.3184   -0.4125    0.0000 C   0  0  0  0  0  0  0  0  0  0  0  0
   -0.6039    0.0000    0.0000 C   0  0  0  0  0  0  0  0  0  0  0  0
   -0.6039   -0.8250    0.0000 C   0  0  0  0  0  0  0  0  0  0  0  0
   -2.0329    0.0000    0.0000 C   0  0  0  0  0  0  0  0  0  0  0  0
   -2.0329    0.8250    0.0000 C   0  0  0  0  0  0  0  0  0  0  0  0
   -1.3184    1.2375    0.0000 C   0  0  0  0  0  0  0  0  0  0  0  0
   -1.3184    2.0625    0.0000 O   0  0  0  0  0  0  0  0  0  0  0  0
   -0.6039    0.8250    0.0000 C   0  0  0  0  0  0  0  0  0  0  0  0
    0.1105    0.4125    0.0000 C   0  0  0  0  0  0  0  0  0  0  0  0
    0.8250    0.0000    0.0000 C   0  0  0  0  0  0  0  0  0  0  0  0
    0.8250   -0.8250    0.0000 N   0  0  0  0  0  0  0  0  0  0  0  0
    0.1105   -1.2375    0.0000 C   0  0  0  0  0  0  0  0  0  0  0  0
    2.2539    1.6500    0.0000 C   0  0  0  0  0  0  0  0  0  0  0  0
    2.9684    1.2375    0.0000 O   0  0  0  0  0  0  0  0  0  0  0  0
    2.9684   -1.2375    0.0000 C   0  0  0  0  0  0  0  0  0  0  0  0
    3.6829   -0.8250    0.0000 C   0  0  0  0  0  0  0  0  0  0  0  0
    3.6829    0.0000    0.0000 C   0  0  0  0  0  0  0  0  0  0  0  0
    2.2539   -0.8250    0.0000 C   0  0  0  0  0  0  0  0  0  0  0  0
    1.5395   -1.2375    0.0000 C   0  0  0  0  0  0  0  0  0  0  0  0
    1.5395   -2.0625    0.0000 O   0  0  0  0  0  0  0  0  0  0  0  0
    2.2539    0.0000    0.0000 C   0  0  0  0  0  0  0  0  0  0  0  0
    2.9684    0.4125    0.0000 C   0  0  0  0  0  0  0  0  0  0  0  0
    4.4675    0.2549    0.0000 C   0  0  0  0  0  0  0  0  0  0  0  0
    4.9524   -0.4125    0.0000 C   0  0  0  0  0  0  0  0  0  0  0  0
    4.4675   -1.0799    0.0000 N   0  0  0  0  0  0  0  0  0  0  0  0
  1  2  1  0  0  0  0
  2  3  1  0  0  0  0
  2  4  1  0  0  0  0
  2  5  1  0  0  0  0
  5  6  4  0  0  0  0
  5  7  4  0  0  0  0
  6 12  4  0  0  0  0
  7 11  4  0  0  0  0
  8  9  1  0  0  0  0
  8 11  1  0  0  0  0
  9 10  1  0  0  0  0
  9 15  1  0  0  0  0
  9 16  1  0  0  0  0
 10 19  1  0  0  0  0
 11 12  4  0  0  0  0
 12 13  1  0  0  0  0
 13 14  2  0  0  0  0
 13 15  1  0  0  0  0
 16 17  1  0  0  0  0
 17 18  1  0  0  0  0
 18 19  1  0  0  0  0
 18 26  1  0  0  0  0
 20 21  1  0  0  0  0
 21 29  1  0  0  0  0
 22 23  4  0  0  0  0
 22 25  4  0  0  0  0
 23 24  4  0  0  0  0
 23 32  4  0  0  0  0
 24 29  4  0  0  0  0
 24 30  4  0  0  0  0
 25 26  1  0  0  0  0
 25 28  4  0  0  0  0
 26 27  2  0  0  0  0
 28 29  4  0  0  0  0
 30 31  4  0  0  0  0
 31 32  4  0  0  0  0
M  STY  1   1 DAT
M  SAL   1  1  32
M  SDT   1 MRV_IMPLICIT_H                                        
M  SDD   1     0.0000    0.0000    DR    ALL  0       0  
M  SED   1 IMPL_H1
M  END
> <From>
www.bindingDB.org

> <BindingDB Reactant_set_id>
1397259

> <Ligand InChI>
InChI=1S/C25H29N3O3S/c1-24(2,3)23-27-21-18(29)13-25(14-20(21)32-23)6-9-28(10-7-25)22(30)15-11-17-16(5-8-26-17)19(12-15)31-4/h5,8,11-12,26H,6-7,9-10,13-14H2,1-4H3

> <Ligand InChI Key>
FBMLQPBGHJVHTQ-UHFFFAOYSA-N

> <BindingDB MonomerID>
663877

> <BindingDB Ligand Name>
US20240109915, Example 61

> <Target Name>
Activating signal cointegrator 1 complex subunit 1

> <Target Source Organism According to Curator or DataSource>


> <Ki (nM)>


> <IC50 (nM)>
 4.40

> <Kd (nM)>


> <EC50 (nM)>


> <kon (M-1-s-1)>


> <koff (s-1)>


> <pH>


> <Temp C>


> <Curation/DataSource>
US Patent

> <Article DOI>


> <BindingDB Entry DOI>
10.7270/Q2348QQ2

> <PMID>


> <PubChem AID>


> <Patent Number>
US20240109915

> <Authors>
Bagley, SW; Bootsma, AN; Choi, C; Dow, RL; Edmonds, DJ; Garcia-Irizarry, CN; Gerstenberger, BS; Ingle, G; O''Brien, JG; Parikh, MD; Rescourio, GC; Schmitt, DC

> <Institution>
Pfizer

> <Link to Ligand in BindingDB>
http://www.bindingdb.org/bind/chemsearch/marvin/MolStructure.jsp?monomerid=663877

> <Link to Ligand-Target Pair in BindingDB>
http://www.bindingdb.org/jsp/dbsearch/PrimarySearch_ki.jsp?energyterm=kJ/mole&tag=pol&polymerid=735&target=Activating+signal+cointegrator+1+complex+subunit+1&column=ki&startPg=0&Increment=50&submit=Search

> <Link to Ligand-Target Pair in BindingDB>
http://www.bindingdb.org/jsp/dbsearch/PrimarySearch_ki.jsp?energyterm=kJ/mole&tag=r21&monomerid=663877&enzyme=Activating+signal+cointegrator+1+complex+subunit+1&column=ki&startPg=0&Increment=50&submit=Search

> <Ligand HET ID in PDB>


> <PDB ID(s) for Ligand-Target Complex>


> <PubChem CID>


> <PubChem SID>


> <ChEBI ID of Ligand>


> <ChEMBL ID of Ligand>


> <DrugBank ID of Ligand>


> <IUPHAR_GRAC ID of Ligand>


> <KEGG ID of Ligand>


> <ZINC ID of Ligand>


> <Number of Protein Chains in Target (bigger than 1 implies a multichain complex)>
1

> <BindingDB Target Chain Sequence>
MEVLRPQLIRIDGRNYRKNPVQEQTYQHEEDEEDFYQGSMECADEPCDAYEVEQTPQGFRSTLRAPSLLYNLIHLNTSNDCGFQKITLDCQNIYTWKSRHIVGKRGDTRKKIEMETKTSISIPKPGQDGEIVITGQHRNGVISARTRIDVLLDTFRRKQPFTHFLAFFLNEVEVQEGFLRFQEEVLAKCSMDHGVDSSIFQNPKKLHLTIGMLVLLSEEEIQQTCEMLQQCKEEFINDISGGKPLEVEMAGIEYMNDDPGMVDVLYAKVHMKDGSNRLQELVDRVLERFQASGLIVKEWNSVKLHATVMNTLFRKDPNAEGRYNLYTAEGKYIFKERESFDGRNILKSFALLPRLEYNDAISAHCNLCLPGSSDSPASASQVAGITGVSDAYSQSLPGKS

> <PDB ID(s) of Target Chain>


> <UniProt (SwissProt) Recommended Name of Target Chain>
Activating signal cointegrator 1 complex subunit 1

> <UniProt (SwissProt) Entry Name of Target Chain>
ASCC1_HUMAN

> <UniProt (SwissProt) Primary ID of Target Chain>
Q8N9N2

> <UniProt (SwissProt) Secondary ID(s) of Target Chain>
Q5SW06 Q5SW07 Q96EI8 Q9Y307

> <UniProt (SwissProt) Alternative ID(s) of Target Chain>


> <UniProt (TrEMBL) Submitted Name of Target Chain>


> <UniProt (TrEMBL) Entry Name of Target Chain>


> <UniProt (TrEMBL) Primary ID of Target Chain>


> <UniProt (TrEMBL) Secondary ID(s) of Target Chain>


> <UniProt (TrEMBL) Alternative ID(s) of Target Chain>


$$$$
00246001.cdx
  Mrv0541 06272400352D          

 34 39  0  0  0  0            999 V2000
   -2.0881    0.8250    0.0000 C   0  0  0  0  0  0  0  0  0  0  0  0
   -2.0881    0.0000    0.0000 C   0  0  0  0  0  0  0  0  0  0  0  0
   -1.3737   -0.4125    0.0000 C   0  0  0  0  0  0  0  0  0  0  0  0
   -0.6592    0.0000    0.0000 C   0  0  0  0  0  0  0  0  0  0  0  0
   -0.6592    0.8250    0.0000 C   0  0  0  0  0  0  0  0  0  0  0  0
   -1.3737    1.2375    0.0000 C   0  0  0  0  0  0  0  0  0  0  0  0
   -0.6592   -0.8250    0.0000 C   0  0  0  0  0  0  0  0  0  0  0  0
    0.0553   -1.2375    0.0000 C   0  0  0  0  0  0  0  0  0  0  0  0
    0.7697   -0.8250    0.0000 N   0  0  0  0  0  0  0  0  0  0  0  0
    0.7697    0.0000    0.0000 C   0  0  0  0  0  0  0  0  0  0  0  0
    0.0553    0.4125    0.0000 C   0  0  0  0  0  0  0  0  0  0  0  0
    1.4842   -1.2375    0.0000 C   0  0  0  0  0  0  0  0  0  0  0  0
    2.1987   -0.8250    0.0000 C   0  0  0  0  0  0  0  0  0  0  0  0
    1.4842   -2.0625    0.0000 O   0  0  0  0  0  0  0  0  0  0  0  0
    2.9131   -1.2375    0.0000 C   0  0  0  0  0  0  0  0  0  0  0  0
    3.6276   -0.8250    0.0000 C   0  0  0  0  0  0  0  0  0  0  0  0
    3.6276    0.0000    0.0000 C   0  0  0  0  0  0  0  0  0  0  0  0
    2.9131    0.4125    0.0000 C   0  0  0  0  0  0  0  0  0  0  0  0
    2.1987    0.0000    0.0000 C   0  0  0  0  0  0  0  0  0  0  0  0
    2.9131    1.2375    0.0000 O   0  0  0  0  0  0  0  0  0  0  0  0
   -1.3737    2.0625    0.0000 O   0  0  0  0  0  0  0  0  0  0  0  0
   -2.8728    1.0799    0.0000 N   0  0  0  0  0  0  0  0  0  0  0  0
   -3.3577    0.4125    0.0000 C   0  0  0  0  0  0  0  0  0  0  0  0
   -2.8728   -0.2549    0.0000 S   0  0  0  0  0  0  0  0  0  0  0  0
   -4.1827    0.4125    0.0000 C   0  0  0  0  0  0  0  0  0  0  0  0
   -4.5952   -0.3020    0.0000 C   0  0  0  0  0  0  0  0  0  0  0  0
   -4.1827    1.2375    0.0000 C   0  0  0  0  0  0  0  0  0  0  0  0
   -4.8972    0.8250    0.0000 C   0  0  0  0  0  0  0  0  0  0  0  0
    2.1987    1.6500    0.0000 C   0  0  0  0  0  0  0  0  0  0  0  0
    4.4122   -1.0799    0.0000 C   0  0  0  0  0  0  0  0  0  0  0  0
    4.8972   -0.4125    0.0000 N   0  0  0  0  0  0  0  0  0  0  0  0
    4.4122    0.2549    0.0000 N   0  0  0  0  0  0  0  0  0  0  0  0
    4.6672    1.0396    0.0000 C   0  0  0  0  0  0  0  0  0  0  0  0
    4.6672   -1.8646    0.0000 C   0  0  0  0  0  0  0  0  0  0  0  0
  1  2  4  0  0  0  0
  2  3  1  0  0  0  0
  3  4  1  0  0  0  0
  4  5  1  0  0  0  0
  5  6  1  0  0  0  0
  6  1  1  0  0  0  0
  4  7  1  0  0  0  0
  7  8  1  0  0  0  0
  8  9  1  0  0  0  0
  9 10  1  0  0  0  0
 10 11  1  0  0  0  0
 11  4  1  0  0  0  0
  9 12  1  0  0  0  0
 12 13  1  0  0  0  0
 12 14  2  0  0  0  0
 13 15  4  0  0  0  0
 15 16  4  0  0  0  0
 16 17  4  0  0  0  0
 17 18  4  0  0  0  0
 18 19  4  0  0  0  0
 19 13  4  0  0  0  0
 18 20  1  0  0  0  0
  6 21  2  0  0  0  0
  1 22  4  0  0  0  0
 22 23  4  0  0  0  0
 23 24  4  0  0  0  0
 24  2  4  0  0  0  0
 23 25  1  0  0  0  0
 25 26  1  0  0  0  0
 25 27  1  0  0  0  0
 27 28  1  0  0  0  0
 28 25  1  0  0  0  0
 20 29  1  0  0  0  0
 16 30  4  0  0  0  0
 30 31  4  0  0  0  0
 31 32  4  0  0  0  0
 32 17  4  0  0  0  0
 32 33  1  0  0  0  0
 30 34  1  0  0  0  0
M  END
> <From>
www.bindingDB.org

> <BindingDB Reactant_set_id>
1397212

> <Ligand InChI>
InChI=1S/C26H30N4O3S/c1-15-17-11-16(12-19(33-4)22(17)29(3)28-15)23(32)30-9-7-26(8-10-30)13-18(31)21-20(14-26)34-24(27-21)25(2)5-6-25/h11-12H,5-10,13-14H2,1-4H3

> <Ligand InChI Key>
SPVDNFYVOFHGCY-UHFFFAOYSA-N

> <BindingDB MonomerID>
663830

> <BindingDB Ligand Name>
US20240109915, Example 11

> <Target Name>
Activating signal cointegrator 1 complex subunit 1

> <Target Source Organism According to Curator or DataSource>


> <Ki (nM)>


> <IC50 (nM)>
 4.50

> <Kd (nM)>


> <EC50 (nM)>


> <kon (M-1-s-1)>


> <koff (s-1)>


> <pH>


> <Temp C>


> <Curation/DataSource>
US Patent

> <Article DOI>


> <BindingDB Entry DOI>
10.7270/Q2348QQ2

> <PMID>


> <PubChem AID>


> <Patent Number>
US20240109915

> <Authors>
Bagley, SW; Bootsma, AN; Choi, C; Dow, RL; Edmonds, DJ; Garcia-Irizarry, CN; Gerstenberger, BS; Ingle, G; O''Brien, JG; Parikh, MD; Rescourio, GC; Schmitt, DC

> <Institution>
Pfizer

> <Link to Ligand in BindingDB>
http://www.bindingdb.org/bind/chemsearch/marvin/MolStructure.jsp?monomerid=663830

> <Link to Ligand-Target Pair in BindingDB>
http://www.bindingdb.org/jsp/dbsearch/PrimarySearch_ki.jsp?energyterm=kJ/mole&tag=pol&polymerid=735&target=Activating+signal+cointegrator+1+complex+subunit+1&column=ki&startPg=0&Increment=50&submit=Search

> <Link to Ligand-Target Pair in BindingDB>
http://www.bindingdb.org/jsp/dbsearch/PrimarySearch_ki.jsp?energyterm=kJ/mole&tag=r21&monomerid=663830&enzyme=Activating+signal+cointegrator+1+complex+subunit+1&column=ki&startPg=0&Increment=50&submit=Search

> <Ligand HET ID in PDB>


> <PDB ID(s) for Ligand-Target Complex>


> <PubChem CID>


> <PubChem SID>


> <ChEBI ID of Ligand>


> <ChEMBL ID of Ligand>


> <DrugBank ID of Ligand>


> <IUPHAR_GRAC ID of Ligand>


> <KEGG ID of Ligand>


> <ZINC ID of Ligand>


> <Number of Protein Chains in Target (bigger than 1 implies a multichain complex)>
1

> <BindingDB Target Chain Sequence>
MEVLRPQLIRIDGRNYRKNPVQEQTYQHEEDEEDFYQGSMECADEPCDAYEVEQTPQGFRSTLRAPSLLYNLIHLNTSNDCGFQKITLDCQNIYTWKSRHIVGKRGDTRKKIEMETKTSISIPKPGQDGEIVITGQHRNGVISARTRIDVLLDTFRRKQPFTHFLAFFLNEVEVQEGFLRFQEEVLAKCSMDHGVDSSIFQNPKKLHLTIGMLVLLSEEEIQQTCEMLQQCKEEFINDISGGKPLEVEMAGIEYMNDDPGMVDVLYAKVHMKDGSNRLQELVDRVLERFQASGLIVKEWNSVKLHATVMNTLFRKDPNAEGRYNLYTAEGKYIFKERESFDGRNILKSFALLPRLEYNDAISAHCNLCLPGSSDSPASASQVAGITGVSDAYSQSLPGKS

> <PDB ID(s) of Target Chain>


> <UniProt (SwissProt) Recommended Name of Target Chain>
Activating signal cointegrator 1 complex subunit 1

> <UniProt (SwissProt) Entry Name of Target Chain>
ASCC1_HUMAN

> <UniProt (SwissProt) Primary ID of Target Chain>
Q8N9N2

> <UniProt (SwissProt) Secondary ID(s) of Target Chain>
Q5SW06 Q5SW07 Q96EI8 Q9Y307

> <UniProt (SwissProt) Alternative ID(s) of Target Chain>


> <UniProt (TrEMBL) Submitted Name of Target Chain>


> <UniProt (TrEMBL) Entry Name of Target Chain>


> <UniProt (TrEMBL) Primary ID of Target Chain>


> <UniProt (TrEMBL) Secondary ID(s) of Target Chain>


> <UniProt (TrEMBL) Alternative ID(s) of Target Chain>


$$$$
00265001.cdx
  Mrv0541 06272400352D          

 35 39  0  0  0  0            999 V2000
   -3.1843    0.8250    0.0000 C   0  0  0  0  0  0  0  0  0  0  0  0
   -3.1843    0.0000    0.0000 C   0  0  0  0  0  0  0  0  0  0  0  0
   -2.4698   -0.4125    0.0000 C   0  0  0  0  0  0  0  0  0  0  0  0
   -1.7553    0.0000    0.0000 C   0  0  0  0  0  0  0  0  0  0  0  0
   -1.7553    0.8250    0.0000 C   0  0  0  0  0  0  0  0  0  0  0  0
   -2.4698    1.2375    0.0000 C   0  0  0  0  0  0  0  0  0  0  0  0
   -1.7553   -0.8250    0.0000 C   0  0  0  0  0  0  0  0  0  0  0  0
   -1.0409   -1.2375    0.0000 C   0  0  0  0  0  0  0  0  0  0  0  0
   -0.3264   -0.8250    0.0000 N   0  0  0  0  0  0  0  0  0  0  0  0
   -0.3264    0.0000    0.0000 C   0  0  0  0  0  0  0  0  0  0  0  0
   -1.0409    0.4125    0.0000 C   0  0  0  0  0  0  0  0  0  0  0  0
    0.3881   -1.2375    0.0000 C   0  0  0  0  0  0  0  0  0  0  0  0
    1.1025   -0.8250    0.0000 C   0  0  0  0  0  0  0  0  0  0  0  0
    0.3881   -2.0625    0.0000 O   0  0  0  0  0  0  0  0  0  0  0  0
    1.8170   -1.2375    0.0000 C   0  0  0  0  0  0  0  0  0  0  0  0
    2.5315   -0.8250    0.0000 C   0  0  0  0  0  0  0  0  0  0  0  0
    2.5315    0.0000    0.0000 C   0  0  0  0  0  0  0  0  0  0  0  0
    1.8170    0.4125    0.0000 C   0  0  0  0  0  0  0  0  0  0  0  0
    1.1025    0.0000    0.0000 C   0  0  0  0  0  0  0  0  0  0  0  0
   -2.4698    2.0625    0.0000 O   0  0  0  0  0  0  0  0  0  0  0  0
   -3.9689    1.0799    0.0000 N   0  0  0  0  0  0  0  0  0  0  0  0
   -4.4538    0.4125    0.0000 C   0  0  0  0  0  0  0  0  0  0  0  0
   -3.9689   -0.2549    0.0000 S   0  0  0  0  0  0  0  0  0  0  0  0
   -5.2788    0.4125    0.0000 C   0  0  0  0  0  0  0  0  0  0  0  0
   -5.6913    1.1270    0.0000 C   0  0  0  0  0  0  0  0  0  0  0  0
   -5.6913   -0.3020    0.0000 C   0  0  0  0  0  0  0  0  0  0  0  0
   -6.1038    0.4125    0.0000 C   0  0  0  0  0  0  0  0  0  0  0  0
    3.2459   -1.2375    0.0000 N   0  0  0  0  0  0  0  0  0  0  0  0
    3.9604   -0.8250    0.0000 C   0  0  0  0  0  0  0  0  0  0  0  0
    3.9604    0.0000    0.0000 C   0  0  0  0  0  0  0  0  0  0  0  0
    3.2459    0.4125    0.0000 C   0  0  0  0  0  0  0  0  0  0  0  0
    4.6749   -1.2375    0.0000 N   0  0  0  0  0  0  0  0  0  0  0  0
    5.3894   -0.8250    0.0000 C   0  0  0  0  0  0  0  0  0  0  0  0
    6.1038   -1.2375    0.0000 C   0  0  0  0  0  0  0  0  0  0  0  0
    5.3894    0.0000    0.0000 C   0  0  0  0  0  0  0  0  0  0  0  0
  1  2  4  0  0  0  0
  2  3  1  0  0  0  0
  3  4  1  0  0  0  0
  4  5  1  0  0  0  0
  5  6  1  0  0  0  0
  6  1  1  0  0  0  0
  4  7  1  0  0  0  0
  7  8  1  0  0  0  0
  8  9  1  0  0  0  0
  9 10  1  0  0  0  0
 10 11  1  0  0  0  0
 11  4  1  0  0  0  0
  9 12  1  0  0  0  0
 12 13  1  0  0  0  0
 12 14  2  0  0  0  0
 13 15  4  0  0  0  0
 15 16  4  0  0  0  0
 16 17  4  0  0  0  0
 17 18  4  0  0  0  0
 18 19  4  0  0  0  0
 19 13  4  0  0  0  0
  6 20  2  0  0  0  0
  1 21  4  0  0  0  0
 21 22  4  0  0  0  0
 22 23  4  0  0  0  0
 23  2  4  0  0  0  0
 22 24  1  0  0  0  0
 24 25  1  0  0  0  0
 24 26  1  0  0  0  0
 24 27  1  0  0  0  0
 16 28  4  0  0  0  0
 28 29  4  0  0  0  0
 29 30  4  0  0  0  0
 30 31  4  0  0  0  0
 31 17  4  0  0  0  0
 29 32  1  0  0  0  0
 32 33  1  0  0  0  0
 33 34  1  0  0  0  0
 33 35  1  0  0  0  0
M  END
> <From>
www.bindingDB.org

> <BindingDB Reactant_set_id>
1397230

> <Ligand InChI>
InChI=1S/C28H34N4O2S/c1-17(2)29-23-9-8-18-6-7-19(14-20(18)30-23)25(34)32-12-10-28(11-13-32)15-21(33)24-22(16-28)35-26(31-24)27(3,4)5/h6-9,14,17H,10-13,15-16H2,1-5H3,(H,29,30)

> <Ligand InChI Key>
RDEBCDSMWXNATP-UHFFFAOYSA-N

> <BindingDB MonomerID>
663848

> <BindingDB Ligand Name>
US20240109915, Example 30

> <Target Name>
Activating signal cointegrator 1 complex subunit 1

> <Target Source Organism According to Curator or DataSource>


> <Ki (nM)>


> <IC50 (nM)>
 4.60

> <Kd (nM)>


> <EC50 (nM)>


> <kon (M-1-s-1)>


> <koff (s-1)>


> <pH>


> <Temp C>


> <Curation/DataSource>
US Patent

> <Article DOI>


> <BindingDB Entry DOI>
10.7270/Q2348QQ2

> <PMID>


> <PubChem AID>


> <Patent Number>
US20240109915

> <Authors>
Bagley, SW; Bootsma, AN; Choi, C; Dow, RL; Edmonds, DJ; Garcia-Irizarry, CN; Gerstenberger, BS; Ingle, G; O''Brien, JG; Parikh, MD; Rescourio, GC; Schmitt, DC

> <Institution>
Pfizer

> <Link to Ligand in BindingDB>
http://www.bindingdb.org/bind/chemsearch/marvin/MolStructure.jsp?monomerid=663848

> <Link to Ligand-Target Pair in BindingDB>
http://www.bindingdb.org/jsp/dbsearch/PrimarySearch_ki.jsp?energyterm=kJ/mole&tag=pol&polymerid=735&target=Activating+signal+cointegrator+1+complex+subunit+1&column=ki&startPg=0&Increment=50&submit=Search

> <Link to Ligand-Target Pair in BindingDB>
http://www.bindingdb.org/jsp/dbsearch/PrimarySearch_ki.jsp?energyterm=kJ/mole&tag=r21&monomerid=663848&enzyme=Activating+signal+cointegrator+1+complex+subunit+1&column=ki&startPg=0&Increment=50&submit=Search

> <Ligand HET ID in PDB>


> <PDB ID(s) for Ligand-Target Complex>


> <PubChem CID>


> <PubChem SID>


> <ChEBI ID of Ligand>


> <ChEMBL ID of Ligand>


> <DrugBank ID of Ligand>


> <IUPHAR_GRAC ID of Ligand>


> <KEGG ID of Ligand>


> <ZINC ID of Ligand>


> <Number of Protein Chains in Target (bigger than 1 implies a multichain complex)>
1

> <BindingDB Target Chain Sequence>
MEVLRPQLIRIDGRNYRKNPVQEQTYQHEEDEEDFYQGSMECADEPCDAYEVEQTPQGFRSTLRAPSLLYNLIHLNTSNDCGFQKITLDCQNIYTWKSRHIVGKRGDTRKKIEMETKTSISIPKPGQDGEIVITGQHRNGVISARTRIDVLLDTFRRKQPFTHFLAFFLNEVEVQEGFLRFQEEVLAKCSMDHGVDSSIFQNPKKLHLTIGMLVLLSEEEIQQTCEMLQQCKEEFINDISGGKPLEVEMAGIEYMNDDPGMVDVLYAKVHMKDGSNRLQELVDRVLERFQASGLIVKEWNSVKLHATVMNTLFRKDPNAEGRYNLYTAEGKYIFKERESFDGRNILKSFALLPRLEYNDAISAHCNLCLPGSSDSPASASQVAGITGVSDAYSQSLPGKS

> <PDB ID(s) of Target Chain>


> <UniProt (SwissProt) Recommended Name of Target Chain>
Activating signal cointegrator 1 complex subunit 1

> <UniProt (SwissProt) Entry Name of Target Chain>
ASCC1_HUMAN

> <UniProt (SwissProt) Primary ID of Target Chain>
Q8N9N2

> <UniProt (SwissProt) Secondary ID(s) of Target Chain>
Q5SW06 Q5SW07 Q96EI8 Q9Y307

> <UniProt (SwissProt) Alternative ID(s) of Target Chain>


> <UniProt (TrEMBL) Submitted Name of Target Chain>


> <UniProt (TrEMBL) Entry Name of Target Chain>


> <UniProt (TrEMBL) Primary ID of Target Chain>


> <UniProt (TrEMBL) Secondary ID(s) of Target Chain>


> <UniProt (TrEMBL) Alternative ID(s) of Target Chain>


$$$$
00305001.cdx
  Mrv0541 06272400352D          

 36 40  0  0  0  0            999 V2000
   -4.4538    0.4125    0.0000 C   0  0  0  0  0  0  0  0  0  0  0  0
   -3.9689    1.0799    0.0000 N   0  0  0  0  0  0  0  0  0  0  0  0
   -5.2788    0.4125    0.0000 C   0  0  0  0  0  0  0  0  0  0  0  0
   -3.9689   -0.2549    0.0000 S   0  0  0  0  0  0  0  0  0  0  0  0
   -6.1038    0.4125    0.0000 C   0  0  0  0  0  0  0  0  0  0  0  0
   -5.6913   -0.3020    0.0000 C   0  0  0  0  0  0  0  0  0  0  0  0
   -5.6913    1.1270    0.0000 C   0  0  0  0  0  0  0  0  0  0  0  0
   -2.4698   -0.4125    0.0000 C   0  0  0  0  0  0  0  0  0  0  0  0
   -1.7553    0.0000    0.0000 C   0  0  0  0  0  0  0  0  0  0  0  0
   -1.7553   -0.8250    0.0000 C   0  0  0  0  0  0  0  0  0  0  0  0
   -3.1843    0.0000    0.0000 C   0  0  0  0  0  0  0  0  0  0  0  0
   -3.1843    0.8250    0.0000 C   0  0  0  0  0  0  0  0  0  0  0  0
   -2.4698    1.2375    0.0000 C   0  0  0  0  0  0  0  0  0  0  0  0
   -2.4698    2.0625    0.0000 O   0  0  0  0  0  0  0  0  0  0  0  0
   -1.7553    0.8250    0.0000 C   0  0  0  0  0  0  0  0  0  0  0  0
   -1.0409    0.4125    0.0000 C   0  0  0  0  0  0  0  0  0  0  0  0
   -0.3264    0.0000    0.0000 C   0  0  0  0  0  0  0  0  0  0  0  0
   -0.3264   -0.8250    0.0000 N   0  0  0  0  0  0  0  0  0  0  0  0
   -1.0409   -1.2375    0.0000 C   0  0  0  0  0  0  0  0  0  0  0  0
    0.3881   -1.2375    0.0000 C   0  0  0  0  0  0  0  0  0  0  0  0
    0.3881   -2.0625    0.0000 O   0  0  0  0  0  0  0  0  0  0  0  0
    1.1025   -0.8250    0.0000 C   0  0  0  0  0  0  0  0  0  0  0  0
    1.1025    0.0000    0.0000 C   0  0  0  0  0  0  0  0  0  0  0  0
    1.8170    0.4125    0.0000 C   0  0  0  0  0  0  0  0  0  0  0  0
    2.5315    0.0000    0.0000 C   0  0  0  0  0  0  0  0  0  0  0  0
    3.2459    0.4125    0.0000 C   0  0  0  0  0  0  0  0  0  0  0  0
    3.9604    0.0000    0.0000 C   0  0  0  0  0  0  0  0  0  0  0  0
    3.9604   -0.8250    0.0000 C   0  0  0  0  0  0  0  0  0  0  0  0
    4.6749   -1.2375    0.0000 N   0  0  0  0  0  0  0  0  0  0  0  0
    2.5315   -0.8250    0.0000 C   0  0  0  0  0  0  0  0  0  0  0  0
    3.2459   -1.2375    0.0000 N   0  0  0  0  0  0  0  0  0  0  0  0
    1.8170   -1.2375    0.0000 C   0  0  0  0  0  0  0  0  0  0  0  0
    5.3894    0.0000    0.0000 C   0  0  0  0  0  0  0  0  0  0  0  0
    5.3894   -0.8250    0.0000 C   0  0  0  0  0  0  0  0  0  0  0  0
    6.1038   -0.4125    0.0000 C   0  0  0  0  0  0  0  0  0  0  0  0
    6.1038   -1.2375    0.0000 C   0  0  0  0  0  0  0  0  0  0  0  0
  1  2  4  0  0  0  0
  1  3  1  0  0  0  0
  1  4  4  0  0  0  0
  2 12  4  0  0  0  0
  3  5  1  0  0  0  0
  3  6  1  0  0  0  0
  3  7  1  0  0  0  0
  4 11  4  0  0  0  0
  8  9  1  0  0  0  0
  8 11  1  0  0  0  0
  9 10  1  0  0  0  0
  9 15  1  0  0  0  0
  9 16  1  0  0  0  0
 10 19  1  0  0  0  0
 11 12  4  0  0  0  0
 12 13  1  0  0  0  0
 13 14  2  0  0  0  0
 13 15  1  0  0  0  0
 16 17  1  0  0  0  0
 17 18  1  0  0  0  0
 18 19  1  0  0  0  0
 18 20  1  0  0  0  0
 20 21  2  0  0  0  0
 20 22  1  0  0  0  0
 22 23  4  0  0  0  0
 22 32  4  0  0  0  0
 23 24  4  0  0  0  0
 24 25  4  0  0  0  0
 25 26  4  0  0  0  0
 25 30  4  0  0  0  0
 26 27  4  0  0  0  0
 27 28  4  0  0  0  0
 28 29  1  0  0  0  0
 28 31  4  0  0  0  0
 29 34  1  0  0  0  0
 30 31  4  0  0  0  0
 30 32  4  0  0  0  0
 33 34  1  0  0  0  0
 34 35  1  0  0  0  0
 34 36  1  0  0  0  0
M  END
> <From>
www.bindingDB.org

> <BindingDB Reactant_set_id>
1397267

> <Ligand InChI>
InChI=1S/C29H36N4O2S/c1-27(2,3)26-31-24-21(34)16-29(17-22(24)36-26)11-13-33(14-12-29)25(35)19-8-7-18-9-10-23(30-20(18)15-19)32-28(4,5)6/h7-10,15H,11-14,16-17H2,1-6H3,(H,30,32)

> <Ligand InChI Key>
VMGDYMWKLARVSI-UHFFFAOYSA-N

> <BindingDB MonomerID>
663885

> <BindingDB Ligand Name>
US20240109915, Example 70

> <Target Name>
Activating signal cointegrator 1 complex subunit 1

> <Target Source Organism According to Curator or DataSource>


> <Ki (nM)>


> <IC50 (nM)>
 4.60

> <Kd (nM)>


> <EC50 (nM)>


> <kon (M-1-s-1)>


> <koff (s-1)>


> <pH>


> <Temp C>


> <Curation/DataSource>
US Patent

> <Article DOI>


> <BindingDB Entry DOI>
10.7270/Q2348QQ2

> <PMID>


> <PubChem AID>


> <Patent Number>
US20240109915

> <Authors>
Bagley, SW; Bootsma, AN; Choi, C; Dow, RL; Edmonds, DJ; Garcia-Irizarry, CN; Gerstenberger, BS; Ingle, G; O''Brien, JG; Parikh, MD; Rescourio, GC; Schmitt, DC

> <Institution>
Pfizer

> <Link to Ligand in BindingDB>
http://www.bindingdb.org/bind/chemsearch/marvin/MolStructure.jsp?monomerid=663885

> <Link to Ligand-Target Pair in BindingDB>
http://www.bindingdb.org/jsp/dbsearch/PrimarySearch_ki.jsp?energyterm=kJ/mole&tag=pol&polymerid=735&target=Activating+signal+cointegrator+1+complex+subunit+1&column=ki&startPg=0&Increment=50&submit=Search

> <Link to Ligand-Target Pair in BindingDB>
http://www.bindingdb.org/jsp/dbsearch/PrimarySearch_ki.jsp?energyterm=kJ/mole&tag=r21&monomerid=663885&enzyme=Activating+signal+cointegrator+1+complex+subunit+1&column=ki&startPg=0&Increment=50&submit=Search

> <Ligand HET ID in PDB>


> <PDB ID(s) for Ligand-Target Complex>


> <PubChem CID>


> <PubChem SID>


> <ChEBI ID of Ligand>


> <ChEMBL ID of Ligand>


> <DrugBank ID of Ligand>


> <IUPHAR_GRAC ID of Ligand>


> <KEGG ID of Ligand>


> <ZINC ID of Ligand>


> <Number of Protein Chains in Target (bigger than 1 implies a multichain complex)>
1

> <BindingDB Target Chain Sequence>
MEVLRPQLIRIDGRNYRKNPVQEQTYQHEEDEEDFYQGSMECADEPCDAYEVEQTPQGFRSTLRAPSLLYNLIHLNTSNDCGFQKITLDCQNIYTWKSRHIVGKRGDTRKKIEMETKTSISIPKPGQDGEIVITGQHRNGVISARTRIDVLLDTFRRKQPFTHFLAFFLNEVEVQEGFLRFQEEVLAKCSMDHGVDSSIFQNPKKLHLTIGMLVLLSEEEIQQTCEMLQQCKEEFINDISGGKPLEVEMAGIEYMNDDPGMVDVLYAKVHMKDGSNRLQELVDRVLERFQASGLIVKEWNSVKLHATVMNTLFRKDPNAEGRYNLYTAEGKYIFKERESFDGRNILKSFALLPRLEYNDAISAHCNLCLPGSSDSPASASQVAGITGVSDAYSQSLPGKS

> <PDB ID(s) of Target Chain>


> <UniProt (SwissProt) Recommended Name of Target Chain>
Activating signal cointegrator 1 complex subunit 1

> <UniProt (SwissProt) Entry Name of Target Chain>
ASCC1_HUMAN

> <UniProt (SwissProt) Primary ID of Target Chain>
Q8N9N2

> <UniProt (SwissProt) Secondary ID(s) of Target Chain>
Q5SW06 Q5SW07 Q96EI8 Q9Y307

> <UniProt (SwissProt) Alternative ID(s) of Target Chain>


> <UniProt (TrEMBL) Submitted Name of Target Chain>


> <UniProt (TrEMBL) Entry Name of Target Chain>


> <UniProt (TrEMBL) Primary ID of Target Chain>


> <UniProt (TrEMBL) Secondary ID(s) of Target Chain>


> <UniProt (TrEMBL) Alternative ID(s) of Target Chain>


$$$$
00273001.cdx
  Mrv0541 06272400352D          

 34 38  0  0  0  0            999 V2000
   -4.0966    0.4125    0.0000 C   0  0  0  0  0  0  0  0  0  0  0  0
   -3.6117    1.0799    0.0000 N   0  0  0  0  0  0  0  0  0  0  0  0
   -4.9216    0.4125    0.0000 C   0  0  0  0  0  0  0  0  0  0  0  0
   -3.6117   -0.2549    0.0000 S   0  0  0  0  0  0  0  0  0  0  0  0
   -5.3341    1.1270    0.0000 C   0  0  0  0  0  0  0  0  0  0  0  0
   -5.7466    0.4125    0.0000 C   0  0  0  0  0  0  0  0  0  0  0  0
   -5.3341   -0.3020    0.0000 C   0  0  0  0  0  0  0  0  0  0  0  0
   -2.8271    0.0000    0.0000 C   0  0  0  0  0  0  0  0  0  0  0  0
   -2.8271    0.8250    0.0000 C   0  0  0  0  0  0  0  0  0  0  0  0
   -2.1126   -0.4125    0.0000 C   0  0  0  0  0  0  0  0  0  0  0  0
   -2.1126    1.2375    0.0000 C   0  0  0  0  0  0  0  0  0  0  0  0
   -2.1126    2.0625    0.0000 O   0  0  0  0  0  0  0  0  0  0  0  0
   -1.3981    0.8250    0.0000 C   0  0  0  0  0  0  0  0  0  0  0  0
   -1.3981    0.0000    0.0000 C   0  0  0  0  0  0  0  0  0  0  0  0
   -0.6836    0.4125    0.0000 C   0  0  0  0  0  0  0  0  0  0  0  0
    0.0308    0.0000    0.0000 C   0  0  0  0  0  0  0  0  0  0  0  0
    0.0308   -0.8250    0.0000 N   0  0  0  0  0  0  0  0  0  0  0  0
   -1.3981   -0.8250    0.0000 C   0  0  0  0  0  0  0  0  0  0  0  0
   -0.6836   -1.2375    0.0000 C   0  0  0  0  0  0  0  0  0  0  0  0
    2.8887   -0.8250    0.0000 C   0  0  0  0  0  0  0  0  0  0  0  0
    3.6032   -1.2375    0.0000 N   0  0  0  0  0  0  0  0  0  0  0  0
    2.8887    0.0000    0.0000 C   0  0  0  0  0  0  0  0  0  0  0  0
    2.1742   -1.2375    0.0000 C   0  0  0  0  0  0  0  0  0  0  0  0
    1.4598   -0.8250    0.0000 C   0  0  0  0  0  0  0  0  0  0  0  0
    1.4598    0.0000    0.0000 C   0  0  0  0  0  0  0  0  0  0  0  0
    2.1742    0.4125    0.0000 C   0  0  0  0  0  0  0  0  0  0  0  0
    0.7453   -1.2375    0.0000 C   0  0  0  0  0  0  0  0  0  0  0  0
    2.1742    1.2375    0.0000 C   0  0  0  0  0  0  0  0  0  0  0  0
    0.7453   -2.0625    0.0000 O   0  0  0  0  0  0  0  0  0  0  0  0
    3.6032    0.4125    0.0000 C   0  0  0  0  0  0  0  0  0  0  0  0
    4.3177    0.0000    0.0000 C   0  0  0  0  0  0  0  0  0  0  0  0
    4.3177   -0.8250    0.0000 C   0  0  0  0  0  0  0  0  0  0  0  0
    5.0321   -1.2375    0.0000 N   0  0  0  0  0  0  0  0  0  0  0  0
    5.7466   -0.8250    0.0000 C   0  0  0  0  0  0  0  0  0  0  0  0
  1  2  4  0  0  0  0
  1  3  1  0  0  0  0
  1  4  4  0  0  0  0
  2  9  4  0  0  0  0
  3  5  1  0  0  0  0
  3  6  1  0  0  0  0
  3  7  1  0  0  0  0
  4  8  4  0  0  0  0
  8  9  4  0  0  0  0
  8 10  1  0  0  0  0
  9 11  1  0  0  0  0
 10 14  1  0  0  0  0
 11 12  2  0  0  0  0
 11 13  1  0  0  0  0
 13 14  1  0  0  0  0
 14 15  1  0  0  0  0
 14 18  1  0  0  0  0
 15 16  1  0  0  0  0
 16 17  1  0  0  0  0
 17 19  1  0  0  0  0
 17 27  1  0  0  0  0
 18 19  1  0  0  0  0
 20 21  4  0  0  0  0
 20 22  4  0  0  0  0
 20 23  4  0  0  0  0
 21 32  4  0  0  0  0
 22 26  4  0  0  0  0
 22 30  4  0  0  0  0
 23 24  4  0  0  0  0
 24 25  4  0  0  0  0
 24 27  1  0  0  0  0
 25 26  4  0  0  0  0
 26 28  1  0  0  0  0
 27 29  2  0  0  0  0
 30 31  4  0  0  0  0
 31 32  4  0  0  0  0
 32 33  1  0  0  0  0
 33 34  1  0  0  0  0
M  END
> <From>
www.bindingDB.org

> <BindingDB Reactant_set_id>
1397238

> <Ligand InChI>
InChI=1S/C27H32N4O2S/c1-16-12-17(13-19-18(16)6-7-22(28-5)29-19)24(33)31-10-8-27(9-11-31)14-20(32)23-21(15-27)34-25(30-23)26(2,3)4/h6-7,12-13H,8-11,14-15H2,1-5H3,(H,28,29)

> <Ligand InChI Key>
QTQOIFLFGRUCSC-UHFFFAOYSA-N

> <BindingDB MonomerID>
663856

> <BindingDB Ligand Name>
US20240109915, Example 38

> <Target Name>
Activating signal cointegrator 1 complex subunit 1

> <Target Source Organism According to Curator or DataSource>


> <Ki (nM)>


> <IC50 (nM)>
 4.90

> <Kd (nM)>


> <EC50 (nM)>


> <kon (M-1-s-1)>


> <koff (s-1)>


> <pH>


> <Temp C>


> <Curation/DataSource>
US Patent

> <Article DOI>


> <BindingDB Entry DOI>
10.7270/Q2348QQ2

> <PMID>


> <PubChem AID>


> <Patent Number>
US20240109915

> <Authors>
Bagley, SW; Bootsma, AN; Choi, C; Dow, RL; Edmonds, DJ; Garcia-Irizarry, CN; Gerstenberger, BS; Ingle, G; O''Brien, JG; Parikh, MD; Rescourio, GC; Schmitt, DC

> <Institution>
Pfizer

> <Link to Ligand in BindingDB>
http://www.bindingdb.org/bind/chemsearch/marvin/MolStructure.jsp?monomerid=663856

> <Link to Ligand-Target Pair in BindingDB>
http://www.bindingdb.org/jsp/dbsearch/PrimarySearch_ki.jsp?energyterm=kJ/mole&tag=pol&polymerid=735&target=Activating+signal+cointegrator+1+complex+subunit+1&column=ki&startPg=0&Increment=50&submit=Search

> <Link to Ligand-Target Pair in BindingDB>
http://www.bindingdb.org/jsp/dbsearch/PrimarySearch_ki.jsp?energyterm=kJ/mole&tag=r21&monomerid=663856&enzyme=Activating+signal+cointegrator+1+complex+subunit+1&column=ki&startPg=0&Increment=50&submit=Search

> <Ligand HET ID in PDB>


> <PDB ID(s) for Ligand-Target Complex>


> <PubChem CID>


> <PubChem SID>


> <ChEBI ID of Ligand>


> <ChEMBL ID of Ligand>


> <DrugBank ID of Ligand>


> <IUPHAR_GRAC ID of Ligand>


> <KEGG ID of Ligand>


> <ZINC ID of Ligand>


> <Number of Protein Chains in Target (bigger than 1 implies a multichain complex)>
1

> <BindingDB Target Chain Sequence>
MEVLRPQLIRIDGRNYRKNPVQEQTYQHEEDEEDFYQGSMECADEPCDAYEVEQTPQGFRSTLRAPSLLYNLIHLNTSNDCGFQKITLDCQNIYTWKSRHIVGKRGDTRKKIEMETKTSISIPKPGQDGEIVITGQHRNGVISARTRIDVLLDTFRRKQPFTHFLAFFLNEVEVQEGFLRFQEEVLAKCSMDHGVDSSIFQNPKKLHLTIGMLVLLSEEEIQQTCEMLQQCKEEFINDISGGKPLEVEMAGIEYMNDDPGMVDVLYAKVHMKDGSNRLQELVDRVLERFQASGLIVKEWNSVKLHATVMNTLFRKDPNAEGRYNLYTAEGKYIFKERESFDGRNILKSFALLPRLEYNDAISAHCNLCLPGSSDSPASASQVAGITGVSDAYSQSLPGKS

> <PDB ID(s) of Target Chain>


> <UniProt (SwissProt) Recommended Name of Target Chain>
Activating signal cointegrator 1 complex subunit 1

> <UniProt (SwissProt) Entry Name of Target Chain>
ASCC1_HUMAN

> <UniProt (SwissProt) Primary ID of Target Chain>
Q8N9N2

> <UniProt (SwissProt) Secondary ID(s) of Target Chain>
Q5SW06 Q5SW07 Q96EI8 Q9Y307

> <UniProt (SwissProt) Alternative ID(s) of Target Chain>


> <UniProt (TrEMBL) Submitted Name of Target Chain>


> <UniProt (TrEMBL) Entry Name of Target Chain>


> <UniProt (TrEMBL) Primary ID of Target Chain>


> <UniProt (TrEMBL) Secondary ID(s) of Target Chain>


> <UniProt (TrEMBL) Alternative ID(s) of Target Chain>


$$$$
00268001.cdx
  Mrv0541 06272400352D          

 33 37  0  0  0  0            999 V2000
   -2.1126    0.8250    0.0000 C   0  0  0  0  0  0  0  0  0  0  0  0
   -2.1126    0.0000    0.0000 C   0  0  0  0  0  0  0  0  0  0  0  0
   -1.3981   -0.4125    0.0000 C   0  0  0  0  0  0  0  0  0  0  0  0
   -0.6836    0.0000    0.0000 C   0  0  0  0  0  0  0  0  0  0  0  0
   -0.6836    0.8250    0.0000 C   0  0  0  0  0  0  0  0  0  0  0  0
   -1.3981    1.2375    0.0000 C   0  0  0  0  0  0  0  0  0  0  0  0
   -0.6836   -0.8250    0.0000 C   0  0  0  0  0  0  0  0  0  0  0  0
    0.0308   -1.2375    0.0000 C   0  0  0  0  0  0  0  0  0  0  0  0
    0.7453   -0.8250    0.0000 N   0  0  0  0  0  0  0  0  0  0  0  0
    0.7453    0.0000    0.0000 C   0  0  0  0  0  0  0  0  0  0  0  0
    0.0308    0.4125    0.0000 C   0  0  0  0  0  0  0  0  0  0  0  0
    1.4598   -1.2375    0.0000 C   0  0  0  0  0  0  0  0  0  0  0  0
    2.1742   -0.8250    0.0000 C   0  0  0  0  0  0  0  0  0  0  0  0
    1.4598   -2.0625    0.0000 O   0  0  0  0  0  0  0  0  0  0  0  0
    2.8887   -1.2375    0.0000 C   0  0  0  0  0  0  0  0  0  0  0  0
    3.6032   -0.8250    0.0000 C   0  0  0  0  0  0  0  0  0  0  0  0
    3.6032    0.0000    0.0000 C   0  0  0  0  0  0  0  0  0  0  0  0
    2.8887    0.4125    0.0000 C   0  0  0  0  0  0  0  0  0  0  0  0
    2.1742    0.0000    0.0000 C   0  0  0  0  0  0  0  0  0  0  0  0
   -1.3981    2.0625    0.0000 O   0  0  0  0  0  0  0  0  0  0  0  0
   -2.8972    1.0799    0.0000 N   0  0  0  0  0  0  0  0  0  0  0  0
   -3.3821    0.4125    0.0000 C   0  0  0  0  0  0  0  0  0  0  0  0
   -2.8972   -0.2549    0.0000 S   0  0  0  0  0  0  0  0  0  0  0  0
   -4.2071    0.4125    0.0000 C   0  0  0  0  0  0  0  0  0  0  0  0
   -4.6196    1.1270    0.0000 C   0  0  0  0  0  0  0  0  0  0  0  0
   -4.6196   -0.3020    0.0000 C   0  0  0  0  0  0  0  0  0  0  0  0
   -5.0321    0.4125    0.0000 C   0  0  0  0  0  0  0  0  0  0  0  0
    2.7172    1.2195    0.0000 C   0  0  0  0  0  0  0  0  0  0  0  0
    1.8967    1.3057    0.0000 N   0  0  0  0  0  0  0  0  0  0  0  0
    1.5611    0.5520    0.0000 N   0  0  0  0  0  0  0  0  0  0  0  0
    4.3177    0.4125    0.0000 C   0  0  0  0  0  0  0  0  0  0  0  0
    4.3177   -1.2375    0.0000 O   0  0  0  0  0  0  0  0  0  0  0  0
    5.0321   -0.8250    0.0000 C   0  0  0  0  0  0  0  0  0  0  0  0
  1  2  4  0  0  0  0
  2  3  1  0  0  0  0
  3  4  1  0  0  0  0
  4  5  1  0  0  0  0
  5  6  1  0  0  0  0
  6  1  1  0  0  0  0
  4  7  1  0  0  0  0
  7  8  1  0  0  0  0
  8  9  1  0  0  0  0
  9 10  1  0  0  0  0
 10 11  1  0  0  0  0
 11  4  1  0  0  0  0
  9 12  1  0  0  0  0
 12 13  1  0  0  0  0
 12 14  2  0  0  0  0
 13 15  4  0  0  0  0
 15 16  4  0  0  0  0
 16 17  4  0  0  0  0
 17 18  4  0  0  0  0
 18 19  4  0  0  0  0
 19 13  4  0  0  0  0
  6 20  2  0  0  0  0
  1 21  4  0  0  0  0
 21 22  4  0  0  0  0
 22 23  4  0  0  0  0
 23  2  4  0  0  0  0
 22 24  1  0  0  0  0
 24 25  1  0  0  0  0
 24 26  1  0  0  0  0
 24 27  1  0  0  0  0
 18 28  4  0  0  0  0
 28 29  4  0  0  0  0
 29 30  4  0  0  0  0
 30 19  4  0  0  0  0
 17 31  1  0  0  0  0
 16 32  1  0  0  0  0
 32 33  1  0  0  0  0
M  STY  1   1 DAT
M  SAL   1  1  30
M  SDT   1 MRV_IMPLICIT_H                                        
M  SDD   1     0.0000    0.0000    DR    ALL  0       0  
M  SED   1 IMPL_H1
M  END
> <From>
www.bindingDB.org

> <BindingDB Reactant_set_id>
1397233

> <Ligand InChI>
InChI=1S/C25H30N4O3S/c1-14-16-13-26-28-20(16)15(10-18(14)32-5)22(31)29-8-6-25(7-9-29)11-17(30)21-19(12-25)33-23(27-21)24(2,3)4/h10,13H,6-9,11-12H2,1-5H3,(H,26,28)

> <Ligand InChI Key>
HSDWXLVLRJRLEX-UHFFFAOYSA-N

> <BindingDB MonomerID>
663851

> <BindingDB Ligand Name>
US20240109915, Example 33

> <Target Name>
Activating signal cointegrator 1 complex subunit 1

> <Target Source Organism According to Curator or DataSource>


> <Ki (nM)>


> <IC50 (nM)>
 5.10

> <Kd (nM)>


> <EC50 (nM)>


> <kon (M-1-s-1)>


> <koff (s-1)>


> <pH>


> <Temp C>


> <Curation/DataSource>
US Patent

> <Article DOI>


> <BindingDB Entry DOI>
10.7270/Q2348QQ2

> <PMID>


> <PubChem AID>


> <Patent Number>
US20240109915

> <Authors>
Bagley, SW; Bootsma, AN; Choi, C; Dow, RL; Edmonds, DJ; Garcia-Irizarry, CN; Gerstenberger, BS; Ingle, G; O''Brien, JG; Parikh, MD; Rescourio, GC; Schmitt, DC

> <Institution>
Pfizer

> <Link to Ligand in BindingDB>
http://www.bindingdb.org/bind/chemsearch/marvin/MolStructure.jsp?monomerid=663851

> <Link to Ligand-Target Pair in BindingDB>
http://www.bindingdb.org/jsp/dbsearch/PrimarySearch_ki.jsp?energyterm=kJ/mole&tag=pol&polymerid=735&target=Activating+signal+cointegrator+1+complex+subunit+1&column=ki&startPg=0&Increment=50&submit=Search

> <Link to Ligand-Target Pair in BindingDB>
http://www.bindingdb.org/jsp/dbsearch/PrimarySearch_ki.jsp?energyterm=kJ/mole&tag=r21&monomerid=663851&enzyme=Activating+signal+cointegrator+1+complex+subunit+1&column=ki&startPg=0&Increment=50&submit=Search

> <Ligand HET ID in PDB>


> <PDB ID(s) for Ligand-Target Complex>


> <PubChem CID>


> <PubChem SID>


> <ChEBI ID of Ligand>


> <ChEMBL ID of Ligand>


> <DrugBank ID of Ligand>


> <IUPHAR_GRAC ID of Ligand>


> <KEGG ID of Ligand>


> <ZINC ID of Ligand>


> <Number of Protein Chains in Target (bigger than 1 implies a multichain complex)>
1

> <BindingDB Target Chain Sequence>
MEVLRPQLIRIDGRNYRKNPVQEQTYQHEEDEEDFYQGSMECADEPCDAYEVEQTPQGFRSTLRAPSLLYNLIHLNTSNDCGFQKITLDCQNIYTWKSRHIVGKRGDTRKKIEMETKTSISIPKPGQDGEIVITGQHRNGVISARTRIDVLLDTFRRKQPFTHFLAFFLNEVEVQEGFLRFQEEVLAKCSMDHGVDSSIFQNPKKLHLTIGMLVLLSEEEIQQTCEMLQQCKEEFINDISGGKPLEVEMAGIEYMNDDPGMVDVLYAKVHMKDGSNRLQELVDRVLERFQASGLIVKEWNSVKLHATVMNTLFRKDPNAEGRYNLYTAEGKYIFKERESFDGRNILKSFALLPRLEYNDAISAHCNLCLPGSSDSPASASQVAGITGVSDAYSQSLPGKS

> <PDB ID(s) of Target Chain>


> <UniProt (SwissProt) Recommended Name of Target Chain>
Activating signal cointegrator 1 complex subunit 1

> <UniProt (SwissProt) Entry Name of Target Chain>
ASCC1_HUMAN

> <UniProt (SwissProt) Primary ID of Target Chain>
Q8N9N2

> <UniProt (SwissProt) Secondary ID(s) of Target Chain>
Q5SW06 Q5SW07 Q96EI8 Q9Y307

> <UniProt (SwissProt) Alternative ID(s) of Target Chain>


> <UniProt (TrEMBL) Submitted Name of Target Chain>


> <UniProt (TrEMBL) Entry Name of Target Chain>


> <UniProt (TrEMBL) Primary ID of Target Chain>


> <UniProt (TrEMBL) Secondary ID(s) of Target Chain>


> <UniProt (TrEMBL) Alternative ID(s) of Target Chain>


$$$$
00247001.cdx
  Mrv0541 06272400352D          

 34 38  0  0  0  0            999 V2000
   -1.6204    0.8250    0.0000 C   0  0  0  0  0  0  0  0  0  0  0  0
   -1.6204    0.0000    0.0000 C   0  0  0  0  0  0  0  0  0  0  0  0
   -0.9059   -0.4125    0.0000 C   0  0  0  0  0  0  0  0  0  0  0  0
   -0.1914    0.0000    0.0000 C   0  0  0  0  0  0  0  0  0  0  0  0
   -0.1914    0.8250    0.0000 C   0  0  0  0  0  0  0  0  0  0  0  0
   -0.9059    1.2375    0.0000 C   0  0  0  0  0  0  0  0  0  0  0  0
   -0.1914   -0.8250    0.0000 C   0  0  0  0  0  0  0  0  0  0  0  0
    0.5230   -1.2375    0.0000 C   0  0  0  0  0  0  0  0  0  0  0  0
    1.2375   -0.8250    0.0000 N   0  0  0  0  0  0  0  0  0  0  0  0
    1.2375    0.0000    0.0000 C   0  0  0  0  0  0  0  0  0  0  0  0
    0.5230    0.4125    0.0000 C   0  0  0  0  0  0  0  0  0  0  0  0
    1.9520   -1.2375    0.0000 C   0  0  0  0  0  0  0  0  0  0  0  0
    2.6664   -0.8250    0.0000 C   0  0  0  0  0  0  0  0  0  0  0  0
    1.9520   -2.0625    0.0000 O   0  0  0  0  0  0  0  0  0  0  0  0
    3.3809   -1.2375    0.0000 C   0  0  0  0  0  0  0  0  0  0  0  0
    4.0954   -0.8250    0.0000 C   0  0  0  0  0  0  0  0  0  0  0  0
    4.0954    0.0000    0.0000 C   0  0  0  0  0  0  0  0  0  0  0  0
    3.3809    0.4125    0.0000 C   0  0  0  0  0  0  0  0  0  0  0  0
    2.6664    0.0000    0.0000 C   0  0  0  0  0  0  0  0  0  0  0  0
    3.3809    1.2375    0.0000 O   0  0  0  0  0  0  0  0  0  0  0  0
   -0.9059    2.0625    0.0000 O   0  0  0  0  0  0  0  0  0  0  0  0
   -2.4050    1.0799    0.0000 N   0  0  0  0  0  0  0  0  0  0  0  0
   -2.8899    0.4125    0.0000 C   0  0  0  0  0  0  0  0  0  0  0  0
   -2.4050   -0.2549    0.0000 S   0  0  0  0  0  0  0  0  0  0  0  0
   -3.7149    0.4125    0.0000 C   0  0  0  0  0  0  0  0  0  0  0  0
    2.6664    1.6500    0.0000 C   0  0  0  0  0  0  0  0  0  0  0  0
    4.8800   -1.0799    0.0000 C   0  0  0  0  0  0  0  0  0  0  0  0
    5.3649   -0.4125    0.0000 N   0  0  0  0  0  0  0  0  0  0  0  0
    4.8800    0.2549    0.0000 N   0  0  0  0  0  0  0  0  0  0  0  0
    5.1349    1.0396    0.0000 C   0  0  0  0  0  0  0  0  0  0  0  0
    5.1349   -1.8646    0.0000 C   0  0  0  0  0  0  0  0  0  0  0  0
   -3.7149    1.2375    0.0000 C   0  0  0  0  0  0  0  0  0  0  0  0
   -3.7149   -0.4125    0.0000 C   0  0  0  0  0  0  0  0  0  0  0  0
   -4.5399    0.4125    0.0000 C   0  0  0  0  0  0  0  0  0  0  0  0
  1  2  4  0  0  0  0
  2  3  1  0  0  0  0
  3  4  1  0  0  0  0
  4  5  1  0  0  0  0
  5  6  1  0  0  0  0
  6  1  1  0  0  0  0
  4  7  1  0  0  0  0
  7  8  1  0  0  0  0
  8  9  1  0  0  0  0
  9 10  1  0  0  0  0
 10 11  1  0  0  0  0
 11  4  1  0  0  0  0
  9 12  1  0  0  0  0
 12 13  1  0  0  0  0
 12 14  2  0  0  0  0
 13 15  4  0  0  0  0
 15 16  4  0  0  0  0
 16 17  4  0  0  0  0
 17 18  4  0  0  0  0
 18 19  4  0  0  0  0
 19 13  4  0  0  0  0
 18 20  1  0  0  0  0
  6 21  2  0  0  0  0
  1 22  4  0  0  0  0
 22 23  4  0  0  0  0
 23 24  4  0  0  0  0
 24  2  4  0  0  0  0
 23 25  1  0  0  0  0
 20 26  1  0  0  0  0
 16 27  4  0  0  0  0
 27 28  4  0  0  0  0
 28 29  4  0  0  0  0
 29 17  4  0  0  0  0
 29 30  1  0  0  0  0
 27 31  1  0  0  0  0
 25 32  1  0  0  0  0
 25 33  1  0  0  0  0
 25 34  1  0  0  0  0
M  END
> <From>
www.bindingDB.org

> <BindingDB Reactant_set_id>
1397213

> <Ligand InChI>
InChI=1S/C26H32N4O3S/c1-15-17-11-16(12-19(33-6)22(17)29(5)28-15)23(32)30-9-7-26(8-10-30)13-18(31)21-20(14-26)34-24(27-21)25(2,3)4/h11-12H,7-10,13-14H2,1-6H3

> <Ligand InChI Key>
XQUUSEXIHHMTIL-UHFFFAOYSA-N

> <BindingDB MonomerID>
663831

> <BindingDB Ligand Name>
US20240109915, Example 12::US20240109915, Example 13

> <Target Name>
Activating signal cointegrator 1 complex subunit 1

> <Target Source Organism According to Curator or DataSource>


> <Ki (nM)>


> <IC50 (nM)>
 5.20

> <Kd (nM)>


> <EC50 (nM)>


> <kon (M-1-s-1)>


> <koff (s-1)>


> <pH>


> <Temp C>


> <Curation/DataSource>
US Patent

> <Article DOI>


> <BindingDB Entry DOI>
10.7270/Q2348QQ2

> <PMID>


> <PubChem AID>


> <Patent Number>
US20240109915

> <Authors>
Bagley, SW; Bootsma, AN; Choi, C; Dow, RL; Edmonds, DJ; Garcia-Irizarry, CN; Gerstenberger, BS; Ingle, G; O''Brien, JG; Parikh, MD; Rescourio, GC; Schmitt, DC

> <Institution>
Pfizer

> <Link to Ligand in BindingDB>
http://www.bindingdb.org/bind/chemsearch/marvin/MolStructure.jsp?monomerid=663831

> <Link to Ligand-Target Pair in BindingDB>
http://www.bindingdb.org/jsp/dbsearch/PrimarySearch_ki.jsp?energyterm=kJ/mole&tag=pol&polymerid=735&target=Activating+signal+cointegrator+1+complex+subunit+1&column=ki&startPg=0&Increment=50&submit=Search

> <Link to Ligand-Target Pair in BindingDB>
http://www.bindingdb.org/jsp/dbsearch/PrimarySearch_ki.jsp?energyterm=kJ/mole&tag=r21&monomerid=663831&enzyme=Activating+signal+cointegrator+1+complex+subunit+1&column=ki&startPg=0&Increment=50&submit=Search

> <Ligand HET ID in PDB>


> <PDB ID(s) for Ligand-Target Complex>


> <PubChem CID>


> <PubChem SID>


> <ChEBI ID of Ligand>


> <ChEMBL ID of Ligand>


> <DrugBank ID of Ligand>


> <IUPHAR_GRAC ID of Ligand>


> <KEGG ID of Ligand>


> <ZINC ID of Ligand>


> <Number of Protein Chains in Target (bigger than 1 implies a multichain complex)>
1

> <BindingDB Target Chain Sequence>
MEVLRPQLIRIDGRNYRKNPVQEQTYQHEEDEEDFYQGSMECADEPCDAYEVEQTPQGFRSTLRAPSLLYNLIHLNTSNDCGFQKITLDCQNIYTWKSRHIVGKRGDTRKKIEMETKTSISIPKPGQDGEIVITGQHRNGVISARTRIDVLLDTFRRKQPFTHFLAFFLNEVEVQEGFLRFQEEVLAKCSMDHGVDSSIFQNPKKLHLTIGMLVLLSEEEIQQTCEMLQQCKEEFINDISGGKPLEVEMAGIEYMNDDPGMVDVLYAKVHMKDGSNRLQELVDRVLERFQASGLIVKEWNSVKLHATVMNTLFRKDPNAEGRYNLYTAEGKYIFKERESFDGRNILKSFALLPRLEYNDAISAHCNLCLPGSSDSPASASQVAGITGVSDAYSQSLPGKS

> <PDB ID(s) of Target Chain>


> <UniProt (SwissProt) Recommended Name of Target Chain>
Activating signal cointegrator 1 complex subunit 1

> <UniProt (SwissProt) Entry Name of Target Chain>
ASCC1_HUMAN

> <UniProt (SwissProt) Primary ID of Target Chain>
Q8N9N2

> <UniProt (SwissProt) Secondary ID(s) of Target Chain>
Q5SW06 Q5SW07 Q96EI8 Q9Y307

> <UniProt (SwissProt) Alternative ID(s) of Target Chain>


> <UniProt (TrEMBL) Submitted Name of Target Chain>


> <UniProt (TrEMBL) Entry Name of Target Chain>


> <UniProt (TrEMBL) Primary ID of Target Chain>


> <UniProt (TrEMBL) Secondary ID(s) of Target Chain>


> <UniProt (TrEMBL) Alternative ID(s) of Target Chain>


$$$$
00278001.cdx
  Mrv0541 06272400352D          

 35 39  0  0  0  0            999 V2000
   -3.3821    0.6188    0.0000 C   0  0  0  0  0  0  0  0  0  0  0  0
   -2.8972    1.2862    0.0000 N   0  0  0  0  0  0  0  0  0  0  0  0
   -4.2071    0.6188    0.0000 C   0  0  0  0  0  0  0  0  0  0  0  0
   -2.8972   -0.0487    0.0000 S   0  0  0  0  0  0  0  0  0  0  0  0
   -4.6196   -0.0957    0.0000 C   0  0  0  0  0  0  0  0  0  0  0  0
   -4.6196    1.3332    0.0000 C   0  0  0  0  0  0  0  0  0  0  0  0
   -5.0321    0.6188    0.0000 C   0  0  0  0  0  0  0  0  0  0  0  0
   -2.1126    0.2063    0.0000 C   0  0  0  0  0  0  0  0  0  0  0  0
   -2.1126    1.0313    0.0000 C   0  0  0  0  0  0  0  0  0  0  0  0
   -1.3981   -0.2062    0.0000 C   0  0  0  0  0  0  0  0  0  0  0  0
   -1.3981    1.4438    0.0000 C   0  0  0  0  0  0  0  0  0  0  0  0
   -1.3981    2.2688    0.0000 O   0  0  0  0  0  0  0  0  0  0  0  0
   -0.6836    1.0313    0.0000 C   0  0  0  0  0  0  0  0  0  0  0  0
   -0.6836    0.2063    0.0000 C   0  0  0  0  0  0  0  0  0  0  0  0
    0.0308    0.6188    0.0000 C   0  0  0  0  0  0  0  0  0  0  0  0
    0.7453    0.2063    0.0000 C   0  0  0  0  0  0  0  0  0  0  0  0
    0.7453   -0.6188    0.0000 N   0  0  0  0  0  0  0  0  0  0  0  0
   -0.6836   -0.6188    0.0000 C   0  0  0  0  0  0  0  0  0  0  0  0
    0.0308   -1.0313    0.0000 C   0  0  0  0  0  0  0  0  0  0  0  0
    4.3177   -1.8563    0.0000 O   0  0  0  0  0  0  0  0  0  0  0  0
    5.0321   -2.2688    0.0000 C   0  0  0  0  0  0  0  0  0  0  0  0
    2.8887    1.4437    0.0000 O   0  0  0  0  0  0  0  0  0  0  0  0
    2.1742    1.8562    0.0000 C   0  0  0  0  0  0  0  0  0  0  0  0
    4.3177   -1.0313    0.0000 C   0  0  0  0  0  0  0  0  0  0  0  0
    5.0321   -0.6188    0.0000 C   0  0  0  0  0  0  0  0  0  0  0  0
    5.0321    0.2062    0.0000 N   0  0  0  0  0  0  0  0  0  0  0  0
    3.6032   -0.6188    0.0000 C   0  0  0  0  0  0  0  0  0  0  0  0
    2.8887   -1.0313    0.0000 C   0  0  0  0  0  0  0  0  0  0  0  0
    2.1742   -0.6188    0.0000 C   0  0  0  0  0  0  0  0  0  0  0  0
    1.4598   -1.0313    0.0000 C   0  0  0  0  0  0  0  0  0  0  0  0
    1.4598   -1.8563    0.0000 O   0  0  0  0  0  0  0  0  0  0  0  0
    3.6032    0.2062    0.0000 C   0  0  0  0  0  0  0  0  0  0  0  0
    2.1742    0.2062    0.0000 C   0  0  0  0  0  0  0  0  0  0  0  0
    2.8887    0.6187    0.0000 C   0  0  0  0  0  0  0  0  0  0  0  0
    4.3177    0.6187    0.0000 C   0  0  0  0  0  0  0  0  0  0  0  0
  1  2  4  0  0  0  0
  1  3  1  0  0  0  0
  1  4  4  0  0  0  0
  2  9  4  0  0  0  0
  3  5  1  0  0  0  0
  3  6  1  0  0  0  0
  3  7  1  0  0  0  0
  4  8  4  0  0  0  0
  8  9  4  0  0  0  0
  8 10  1  0  0  0  0
  9 11  1  0  0  0  0
 10 14  1  0  0  0  0
 11 12  2  0  0  0  0
 11 13  1  0  0  0  0
 13 14  1  0  0  0  0
 14 15  1  0  0  0  0
 14 18  1  0  0  0  0
 15 16  1  0  0  0  0
 16 17  1  0  0  0  0
 17 19  1  0  0  0  0
 17 30  1  0  0  0  0
 18 19  1  0  0  0  0
 20 21  1  0  0  0  0
 20 24  1  0  0  0  0
 22 23  1  0  0  0  0
 22 34  1  0  0  0  0
 24 25  4  0  0  0  0
 24 27  4  0  0  0  0
 25 26  4  0  0  0  0
 26 35  4  0  0  0  0
 27 28  4  0  0  0  0
 27 32  4  0  0  0  0
 28 29  4  0  0  0  0
 29 30  1  0  0  0  0
 29 33  4  0  0  0  0
 30 31  2  0  0  0  0
 32 34  4  0  0  0  0
 32 35  4  0  0  0  0
 33 34  4  0  0  0  0
M  END
> <From>
www.bindingDB.org

> <BindingDB Reactant_set_id>
1397243

> <Ligand InChI>
InChI=1S/C27H31N3O4S/c1-26(2,3)25-29-23-19(31)12-27(13-22(23)35-25)6-8-30(9-7-27)24(32)16-10-17-18(20(11-16)33-4)14-28-15-21(17)34-5/h10-11,14-15H,6-9,12-13H2,1-5H3

> <Ligand InChI Key>
MLSLTAONFMVFIS-UHFFFAOYSA-N

> <BindingDB MonomerID>
663861

> <BindingDB Ligand Name>
US20240109915, Example 43

> <Target Name>
Activating signal cointegrator 1 complex subunit 1

> <Target Source Organism According to Curator or DataSource>


> <Ki (nM)>


> <IC50 (nM)>
 5.20

> <Kd (nM)>


> <EC50 (nM)>


> <kon (M-1-s-1)>


> <koff (s-1)>


> <pH>


> <Temp C>


> <Curation/DataSource>
US Patent

> <Article DOI>


> <BindingDB Entry DOI>
10.7270/Q2348QQ2

> <PMID>


> <PubChem AID>


> <Patent Number>
US20240109915

> <Authors>
Bagley, SW; Bootsma, AN; Choi, C; Dow, RL; Edmonds, DJ; Garcia-Irizarry, CN; Gerstenberger, BS; Ingle, G; O''Brien, JG; Parikh, MD; Rescourio, GC; Schmitt, DC

> <Institution>
Pfizer

> <Link to Ligand in BindingDB>
http://www.bindingdb.org/bind/chemsearch/marvin/MolStructure.jsp?monomerid=663861

> <Link to Ligand-Target Pair in BindingDB>
http://www.bindingdb.org/jsp/dbsearch/PrimarySearch_ki.jsp?energyterm=kJ/mole&tag=pol&polymerid=735&target=Activating+signal+cointegrator+1+complex+subunit+1&column=ki&startPg=0&Increment=50&submit=Search

> <Link to Ligand-Target Pair in BindingDB>
http://www.bindingdb.org/jsp/dbsearch/PrimarySearch_ki.jsp?energyterm=kJ/mole&tag=r21&monomerid=663861&enzyme=Activating+signal+cointegrator+1+complex+subunit+1&column=ki&startPg=0&Increment=50&submit=Search

> <Ligand HET ID in PDB>


> <PDB ID(s) for Ligand-Target Complex>


> <PubChem CID>


> <PubChem SID>


> <ChEBI ID of Ligand>


> <ChEMBL ID of Ligand>


> <DrugBank ID of Ligand>


> <IUPHAR_GRAC ID of Ligand>


> <KEGG ID of Ligand>


> <ZINC ID of Ligand>


> <Number of Protein Chains in Target (bigger than 1 implies a multichain complex)>
1

> <BindingDB Target Chain Sequence>
MEVLRPQLIRIDGRNYRKNPVQEQTYQHEEDEEDFYQGSMECADEPCDAYEVEQTPQGFRSTLRAPSLLYNLIHLNTSNDCGFQKITLDCQNIYTWKSRHIVGKRGDTRKKIEMETKTSISIPKPGQDGEIVITGQHRNGVISARTRIDVLLDTFRRKQPFTHFLAFFLNEVEVQEGFLRFQEEVLAKCSMDHGVDSSIFQNPKKLHLTIGMLVLLSEEEIQQTCEMLQQCKEEFINDISGGKPLEVEMAGIEYMNDDPGMVDVLYAKVHMKDGSNRLQELVDRVLERFQASGLIVKEWNSVKLHATVMNTLFRKDPNAEGRYNLYTAEGKYIFKERESFDGRNILKSFALLPRLEYNDAISAHCNLCLPGSSDSPASASQVAGITGVSDAYSQSLPGKS

> <PDB ID(s) of Target Chain>


> <UniProt (SwissProt) Recommended Name of Target Chain>
Activating signal cointegrator 1 complex subunit 1

> <UniProt (SwissProt) Entry Name of Target Chain>
ASCC1_HUMAN

> <UniProt (SwissProt) Primary ID of Target Chain>
Q8N9N2

> <UniProt (SwissProt) Secondary ID(s) of Target Chain>
Q5SW06 Q5SW07 Q96EI8 Q9Y307

> <UniProt (SwissProt) Alternative ID(s) of Target Chain>


> <UniProt (TrEMBL) Submitted Name of Target Chain>


> <UniProt (TrEMBL) Entry Name of Target Chain>


> <UniProt (TrEMBL) Primary ID of Target Chain>


> <UniProt (TrEMBL) Secondary ID(s) of Target Chain>


> <UniProt (TrEMBL) Alternative ID(s) of Target Chain>


$$$$
00247001.cdx
  Mrv0541 06272400352D          

 34 38  0  0  0  0            999 V2000
   -1.6204    0.8250    0.0000 C   0  0  0  0  0  0  0  0  0  0  0  0
   -1.6204    0.0000    0.0000 C   0  0  0  0  0  0  0  0  0  0  0  0
   -0.9059   -0.4125    0.0000 C   0  0  0  0  0  0  0  0  0  0  0  0
   -0.1914    0.0000    0.0000 C   0  0  0  0  0  0  0  0  0  0  0  0
   -0.1914    0.8250    0.0000 C   0  0  0  0  0  0  0  0  0  0  0  0
   -0.9059    1.2375    0.0000 C   0  0  0  0  0  0  0  0  0  0  0  0
   -0.1914   -0.8250    0.0000 C   0  0  0  0  0  0  0  0  0  0  0  0
    0.5230   -1.2375    0.0000 C   0  0  0  0  0  0  0  0  0  0  0  0
    1.2375   -0.8250    0.0000 N   0  0  0  0  0  0  0  0  0  0  0  0
    1.2375    0.0000    0.0000 C   0  0  0  0  0  0  0  0  0  0  0  0
    0.5230    0.4125    0.0000 C   0  0  0  0  0  0  0  0  0  0  0  0
    1.9520   -1.2375    0.0000 C   0  0  0  0  0  0  0  0  0  0  0  0
    2.6664   -0.8250    0.0000 C   0  0  0  0  0  0  0  0  0  0  0  0
    1.9520   -2.0625    0.0000 O   0  0  0  0  0  0  0  0  0  0  0  0
    3.3809   -1.2375    0.0000 C   0  0  0  0  0  0  0  0  0  0  0  0
    4.0954   -0.8250    0.0000 C   0  0  0  0  0  0  0  0  0  0  0  0
    4.0954    0.0000    0.0000 C   0  0  0  0  0  0  0  0  0  0  0  0
    3.3809    0.4125    0.0000 C   0  0  0  0  0  0  0  0  0  0  0  0
    2.6664    0.0000    0.0000 C   0  0  0  0  0  0  0  0  0  0  0  0
    3.3809    1.2375    0.0000 O   0  0  0  0  0  0  0  0  0  0  0  0
   -0.9059    2.0625    0.0000 O   0  0  0  0  0  0  0  0  0  0  0  0
   -2.4050    1.0799    0.0000 N   0  0  0  0  0  0  0  0  0  0  0  0
   -2.8899    0.4125    0.0000 C   0  0  0  0  0  0  0  0  0  0  0  0
   -2.4050   -0.2549    0.0000 S   0  0  0  0  0  0  0  0  0  0  0  0
   -3.7149    0.4125    0.0000 C   0  0  0  0  0  0  0  0  0  0  0  0
    2.6664    1.6500    0.0000 C   0  0  0  0  0  0  0  0  0  0  0  0
    4.8800   -1.0799    0.0000 C   0  0  0  0  0  0  0  0  0  0  0  0
    5.3649   -0.4125    0.0000 N   0  0  0  0  0  0  0  0  0  0  0  0
    4.8800    0.2549    0.0000 N   0  0  0  0  0  0  0  0  0  0  0  0
    5.1349    1.0396    0.0000 C   0  0  0  0  0  0  0  0  0  0  0  0
    5.1349   -1.8646    0.0000 C   0  0  0  0  0  0  0  0  0  0  0  0
   -3.7149    1.2375    0.0000 C   0  0  0  0  0  0  0  0  0  0  0  0
   -3.7149   -0.4125    0.0000 C   0  0  0  0  0  0  0  0  0  0  0  0
   -4.5399    0.4125    0.0000 C   0  0  0  0  0  0  0  0  0  0  0  0
  1  2  4  0  0  0  0
  2  3  1  0  0  0  0
  3  4  1  0  0  0  0
  4  5  1  0  0  0  0
  5  6  1  0  0  0  0
  6  1  1  0  0  0  0
  4  7  1  0  0  0  0
  7  8  1  0  0  0  0
  8  9  1  0  0  0  0
  9 10  1  0  0  0  0
 10 11  1  0  0  0  0
 11  4  1  0  0  0  0
  9 12  1  0  0  0  0
 12 13  1  0  0  0  0
 12 14  2  0  0  0  0
 13 15  4  0  0  0  0
 15 16  4  0  0  0  0
 16 17  4  0  0  0  0
 17 18  4  0  0  0  0
 18 19  4  0  0  0  0
 19 13  4  0  0  0  0
 18 20  1  0  0  0  0
  6 21  2  0  0  0  0
  1 22  4  0  0  0  0
 22 23  4  0  0  0  0
 23 24  4  0  0  0  0
 24  2  4  0  0  0  0
 23 25  1  0  0  0  0
 20 26  1  0  0  0  0
 16 27  4  0  0  0  0
 27 28  4  0  0  0  0
 28 29  4  0  0  0  0
 29 17  4  0  0  0  0
 29 30  1  0  0  0  0
 27 31  1  0  0  0  0
 25 32  1  0  0  0  0
 25 33  1  0  0  0  0
 25 34  1  0  0  0  0
M  END
> <From>
www.bindingDB.org

> <BindingDB Reactant_set_id>
1397214

> <Ligand InChI>
InChI=1S/C26H32N4O3S/c1-15-17-11-16(12-19(33-6)22(17)29(5)28-15)23(32)30-9-7-26(8-10-30)13-18(31)21-20(14-26)34-24(27-21)25(2,3)4/h11-12H,7-10,13-14H2,1-6H3

> <Ligand InChI Key>
XQUUSEXIHHMTIL-UHFFFAOYSA-N

> <BindingDB MonomerID>
663831

> <BindingDB Ligand Name>
US20240109915, Example 12::US20240109915, Example 13

> <Target Name>
Activating signal cointegrator 1 complex subunit 1

> <Target Source Organism According to Curator or DataSource>


> <Ki (nM)>


> <IC50 (nM)>
 5.30

> <Kd (nM)>


> <EC50 (nM)>


> <kon (M-1-s-1)>


> <koff (s-1)>


> <pH>


> <Temp C>


> <Curation/DataSource>
US Patent

> <Article DOI>


> <BindingDB Entry DOI>
10.7270/Q2348QQ2

> <PMID>


> <PubChem AID>


> <Patent Number>
US20240109915

> <Authors>
Bagley, SW; Bootsma, AN; Choi, C; Dow, RL; Edmonds, DJ; Garcia-Irizarry, CN; Gerstenberger, BS; Ingle, G; O''Brien, JG; Parikh, MD; Rescourio, GC; Schmitt, DC

> <Institution>
Pfizer

> <Link to Ligand in BindingDB>
http://www.bindingdb.org/bind/chemsearch/marvin/MolStructure.jsp?monomerid=663831

> <Link to Ligand-Target Pair in BindingDB>
http://www.bindingdb.org/jsp/dbsearch/PrimarySearch_ki.jsp?energyterm=kJ/mole&tag=pol&polymerid=735&target=Activating+signal+cointegrator+1+complex+subunit+1&column=ki&startPg=0&Increment=50&submit=Search

> <Link to Ligand-Target Pair in BindingDB>
http://www.bindingdb.org/jsp/dbsearch/PrimarySearch_ki.jsp?energyterm=kJ/mole&tag=r21&monomerid=663831&enzyme=Activating+signal+cointegrator+1+complex+subunit+1&column=ki&startPg=0&Increment=50&submit=Search

> <Ligand HET ID in PDB>


> <PDB ID(s) for Ligand-Target Complex>


> <PubChem CID>


> <PubChem SID>


> <ChEBI ID of Ligand>


> <ChEMBL ID of Ligand>


> <DrugBank ID of Ligand>


> <IUPHAR_GRAC ID of Ligand>


> <KEGG ID of Ligand>


> <ZINC ID of Ligand>


> <Number of Protein Chains in Target (bigger than 1 implies a multichain complex)>
1

> <BindingDB Target Chain Sequence>
MEVLRPQLIRIDGRNYRKNPVQEQTYQHEEDEEDFYQGSMECADEPCDAYEVEQTPQGFRSTLRAPSLLYNLIHLNTSNDCGFQKITLDCQNIYTWKSRHIVGKRGDTRKKIEMETKTSISIPKPGQDGEIVITGQHRNGVISARTRIDVLLDTFRRKQPFTHFLAFFLNEVEVQEGFLRFQEEVLAKCSMDHGVDSSIFQNPKKLHLTIGMLVLLSEEEIQQTCEMLQQCKEEFINDISGGKPLEVEMAGIEYMNDDPGMVDVLYAKVHMKDGSNRLQELVDRVLERFQASGLIVKEWNSVKLHATVMNTLFRKDPNAEGRYNLYTAEGKYIFKERESFDGRNILKSFALLPRLEYNDAISAHCNLCLPGSSDSPASASQVAGITGVSDAYSQSLPGKS

> <PDB ID(s) of Target Chain>


> <UniProt (SwissProt) Recommended Name of Target Chain>
Activating signal cointegrator 1 complex subunit 1

> <UniProt (SwissProt) Entry Name of Target Chain>
ASCC1_HUMAN

> <UniProt (SwissProt) Primary ID of Target Chain>
Q8N9N2

> <UniProt (SwissProt) Secondary ID(s) of Target Chain>
Q5SW06 Q5SW07 Q96EI8 Q9Y307

> <UniProt (SwissProt) Alternative ID(s) of Target Chain>


> <UniProt (TrEMBL) Submitted Name of Target Chain>


> <UniProt (TrEMBL) Entry Name of Target Chain>


> <UniProt (TrEMBL) Primary ID of Target Chain>


> <UniProt (TrEMBL) Secondary ID(s) of Target Chain>


> <UniProt (TrEMBL) Alternative ID(s) of Target Chain>


$$$$
00285001.cdx
  Mrv0541 06272400352D          

 32 36  0  0  0  0            999 V2000
   -4.9524    0.4125    0.0000 C   0  0  0  0  0  0  0  0  0  0  0  0
   -4.1274    0.4125    0.0000 C   0  0  0  0  0  0  0  0  0  0  0  0
   -4.5399   -0.3020    0.0000 C   0  0  0  0  0  0  0  0  0  0  0  0
   -4.5399    1.1270    0.0000 C   0  0  0  0  0  0  0  0  0  0  0  0
   -3.3024    0.4125    0.0000 C   0  0  0  0  0  0  0  0  0  0  0  0
   -2.8175    1.0799    0.0000 N   0  0  0  0  0  0  0  0  0  0  0  0
   -2.8175   -0.2549    0.0000 S   0  0  0  0  0  0  0  0  0  0  0  0
   -1.3184   -0.4125    0.0000 C   0  0  0  0  0  0  0  0  0  0  0  0
   -0.6039    0.0000    0.0000 C   0  0  0  0  0  0  0  0  0  0  0  0
   -0.6039   -0.8250    0.0000 C   0  0  0  0  0  0  0  0  0  0  0  0
   -2.0329    0.0000    0.0000 C   0  0  0  0  0  0  0  0  0  0  0  0
   -2.0329    0.8250    0.0000 C   0  0  0  0  0  0  0  0  0  0  0  0
   -1.3184    1.2375    0.0000 C   0  0  0  0  0  0  0  0  0  0  0  0
   -1.3184    2.0625    0.0000 O   0  0  0  0  0  0  0  0  0  0  0  0
   -0.6039    0.8250    0.0000 C   0  0  0  0  0  0  0  0  0  0  0  0
    0.1105    0.4125    0.0000 C   0  0  0  0  0  0  0  0  0  0  0  0
    0.8250    0.0000    0.0000 C   0  0  0  0  0  0  0  0  0  0  0  0
    0.8250   -0.8250    0.0000 N   0  0  0  0  0  0  0  0  0  0  0  0
    0.1105   -1.2375    0.0000 C   0  0  0  0  0  0  0  0  0  0  0  0
    4.4675    0.2549    0.0000 N   0  0  0  0  0  0  0  0  0  0  0  0
    4.9524   -0.4125    0.0000 N   0  0  0  0  0  0  0  0  0  0  0  0
    1.5395   -1.2375    0.0000 C   0  0  0  0  0  0  0  0  0  0  0  0
    1.5395   -2.0625    0.0000 O   0  0  0  0  0  0  0  0  0  0  0  0
    2.2539   -0.8250    0.0000 C   0  0  0  0  0  0  0  0  0  0  0  0
    2.2539    0.0000    0.0000 C   0  0  0  0  0  0  0  0  0  0  0  0
    2.9684    0.4125    0.0000 C   0  0  0  0  0  0  0  0  0  0  0  0
    2.9684    1.2375    0.0000 C   0  0  0  0  0  0  0  0  0  0  0  0
    3.6829    0.0000    0.0000 C   0  0  0  0  0  0  0  0  0  0  0  0
    3.6829   -0.8250    0.0000 C   0  0  0  0  0  0  0  0  0  0  0  0
    4.4675   -1.0799    0.0000 C   0  0  0  0  0  0  0  0  0  0  0  0
    4.7224   -1.8646    0.0000 Cl  0  0  0  0  0  0  0  0  0  0  0  0
    2.9684   -1.2375    0.0000 C   0  0  0  0  0  0  0  0  0  0  0  0
  1  2  1  0  0  0  0
  2  3  1  0  0  0  0
  2  4  1  0  0  0  0
  2  5  1  0  0  0  0
  5  6  4  0  0  0  0
  5  7  4  0  0  0  0
  6 12  4  0  0  0  0
  7 11  4  0  0  0  0
  8  9  1  0  0  0  0
  8 11  1  0  0  0  0
  9 10  1  0  0  0  0
  9 15  1  0  0  0  0
  9 16  1  0  0  0  0
 10 19  1  0  0  0  0
 11 12  4  0  0  0  0
 12 13  1  0  0  0  0
 13 14  2  0  0  0  0
 13 15  1  0  0  0  0
 16 17  1  0  0  0  0
 17 18  1  0  0  0  0
 18 19  1  0  0  0  0
 18 22  1  0  0  0  0
 20 21  4  0  0  0  0
 20 28  4  0  0  0  0
 21 30  4  0  0  0  0
 22 23  2  0  0  0  0
 22 24  1  0  0  0  0
 24 25  4  0  0  0  0
 24 32  4  0  0  0  0
 25 26  4  0  0  0  0
 26 27  1  0  0  0  0
 26 28  4  0  0  0  0
 28 29  4  0  0  0  0
 29 30  4  0  0  0  0
 29 32  4  0  0  0  0
 30 31  1  0  0  0  0
M  STY  1   1 DAT
M  SAL   1  1  20
M  SDT   1 MRV_IMPLICIT_H                                        
M  SDD   1     0.0000    0.0000    DR    ALL  0       0  
M  SED   1 IMPL_H1
M  END
> <From>
www.bindingDB.org

> <BindingDB Reactant_set_id>
1397249

> <Ligand InChI>
InChI=1S/C24H27ClN4O2S/c1-13-9-14(10-15-18(13)27-28-20(15)25)21(31)29-7-5-24(6-8-29)11-16(30)19-17(12-24)32-22(26-19)23(2,3)4/h9-10H,5-8,11-12H2,1-4H3,(H,27,28)

> <Ligand InChI Key>
ODMFUMWAOXHKPE-UHFFFAOYSA-N

> <BindingDB MonomerID>
663867

> <BindingDB Ligand Name>
US20240109915, Example 50

> <Target Name>
Activating signal cointegrator 1 complex subunit 1

> <Target Source Organism According to Curator or DataSource>


> <Ki (nM)>


> <IC50 (nM)>
 5.40

> <Kd (nM)>


> <EC50 (nM)>


> <kon (M-1-s-1)>


> <koff (s-1)>


> <pH>


> <Temp C>


> <Curation/DataSource>
US Patent

> <Article DOI>


> <BindingDB Entry DOI>
10.7270/Q2348QQ2

> <PMID>


> <PubChem AID>


> <Patent Number>
US20240109915

> <Authors>
Bagley, SW; Bootsma, AN; Choi, C; Dow, RL; Edmonds, DJ; Garcia-Irizarry, CN; Gerstenberger, BS; Ingle, G; O''Brien, JG; Parikh, MD; Rescourio, GC; Schmitt, DC

> <Institution>
Pfizer

> <Link to Ligand in BindingDB>
http://www.bindingdb.org/bind/chemsearch/marvin/MolStructure.jsp?monomerid=663867

> <Link to Ligand-Target Pair in BindingDB>
http://www.bindingdb.org/jsp/dbsearch/PrimarySearch_ki.jsp?energyterm=kJ/mole&tag=pol&polymerid=735&target=Activating+signal+cointegrator+1+complex+subunit+1&column=ki&startPg=0&Increment=50&submit=Search

> <Link to Ligand-Target Pair in BindingDB>
http://www.bindingdb.org/jsp/dbsearch/PrimarySearch_ki.jsp?energyterm=kJ/mole&tag=r21&monomerid=663867&enzyme=Activating+signal+cointegrator+1+complex+subunit+1&column=ki&startPg=0&Increment=50&submit=Search

> <Ligand HET ID in PDB>


> <PDB ID(s) for Ligand-Target Complex>


> <PubChem CID>


> <PubChem SID>


> <ChEBI ID of Ligand>


> <ChEMBL ID of Ligand>


> <DrugBank ID of Ligand>


> <IUPHAR_GRAC ID of Ligand>


> <KEGG ID of Ligand>


> <ZINC ID of Ligand>


> <Number of Protein Chains in Target (bigger than 1 implies a multichain complex)>
1

> <BindingDB Target Chain Sequence>
MEVLRPQLIRIDGRNYRKNPVQEQTYQHEEDEEDFYQGSMECADEPCDAYEVEQTPQGFRSTLRAPSLLYNLIHLNTSNDCGFQKITLDCQNIYTWKSRHIVGKRGDTRKKIEMETKTSISIPKPGQDGEIVITGQHRNGVISARTRIDVLLDTFRRKQPFTHFLAFFLNEVEVQEGFLRFQEEVLAKCSMDHGVDSSIFQNPKKLHLTIGMLVLLSEEEIQQTCEMLQQCKEEFINDISGGKPLEVEMAGIEYMNDDPGMVDVLYAKVHMKDGSNRLQELVDRVLERFQASGLIVKEWNSVKLHATVMNTLFRKDPNAEGRYNLYTAEGKYIFKERESFDGRNILKSFALLPRLEYNDAISAHCNLCLPGSSDSPASASQVAGITGVSDAYSQSLPGKS

> <PDB ID(s) of Target Chain>


> <UniProt (SwissProt) Recommended Name of Target Chain>
Activating signal cointegrator 1 complex subunit 1

> <UniProt (SwissProt) Entry Name of Target Chain>
ASCC1_HUMAN

> <UniProt (SwissProt) Primary ID of Target Chain>
Q8N9N2

> <UniProt (SwissProt) Secondary ID(s) of Target Chain>
Q5SW06 Q5SW07 Q96EI8 Q9Y307

> <UniProt (SwissProt) Alternative ID(s) of Target Chain>


> <UniProt (TrEMBL) Submitted Name of Target Chain>


> <UniProt (TrEMBL) Entry Name of Target Chain>


> <UniProt (TrEMBL) Primary ID of Target Chain>


> <UniProt (TrEMBL) Secondary ID(s) of Target Chain>


> <UniProt (TrEMBL) Alternative ID(s) of Target Chain>


$$$$
00338001.cdx
  Mrv0541 06272400352D          

 34 38  0  0  0  0            999 V2000
   -5.0321    0.4125    0.0000 C   0  0  0  0  0  0  0  0  0  0  0  0
   -4.2071    0.4125    0.0000 C   0  0  0  0  0  0  0  0  0  0  0  0
   -4.6196   -0.3020    0.0000 C   0  0  0  0  0  0  0  0  0  0  0  0
   -4.6196    1.1270    0.0000 C   0  0  0  0  0  0  0  0  0  0  0  0
   -3.3821    0.4125    0.0000 C   0  0  0  0  0  0  0  0  0  0  0  0
   -2.8972    1.0799    0.0000 N   0  0  0  0  0  0  0  0  0  0  0  0
   -2.8972   -0.2549    0.0000 S   0  0  0  0  0  0  0  0  0  0  0  0
   -1.3981   -0.4125    0.0000 C   0  0  0  0  0  0  0  0  0  0  0  0
   -0.6836    0.0000    0.0000 C   0  0  0  0  0  0  0  0  0  0  0  0
   -0.6836   -0.8250    0.0000 C   0  0  0  0  0  0  0  0  0  0  0  0
   -2.1126    0.0000    0.0000 C   0  0  0  0  0  0  0  0  0  0  0  0
   -2.1126    0.8250    0.0000 C   0  0  0  0  0  0  0  0  0  0  0  0
   -1.3981    1.2375    0.0000 C   0  0  0  0  0  0  0  0  0  0  0  0
   -1.3981    2.0625    0.0000 O   0  0  0  0  0  0  0  0  0  0  0  0
   -0.6836    0.8250    0.0000 C   0  0  0  0  0  0  0  0  0  0  0  0
    0.0308    0.4125    0.0000 C   0  0  0  0  0  0  0  0  0  0  0  0
    0.7453    0.0000    0.0000 C   0  0  0  0  0  0  0  0  0  0  0  0
    0.7453   -0.8250    0.0000 N   0  0  0  0  0  0  0  0  0  0  0  0
    0.0308   -1.2375    0.0000 C   0  0  0  0  0  0  0  0  0  0  0  0
    2.5082    1.8326    0.0000 C   0  0  0  0  0  0  0  0  0  0  0  0
    3.0602    1.2195    0.0000 N   0  0  0  0  0  0  0  0  0  0  0  0
    3.8807    1.3057    0.0000 N   0  0  0  0  0  0  0  0  0  0  0  0
    1.4598   -1.2375    0.0000 C   0  0  0  0  0  0  0  0  0  0  0  0
    1.4598   -2.0625    0.0000 O   0  0  0  0  0  0  0  0  0  0  0  0
    2.1742   -0.8250    0.0000 C   0  0  0  0  0  0  0  0  0  0  0  0
    2.1742    0.0000    0.0000 C   0  0  0  0  0  0  0  0  0  0  0  0
    2.8887    0.4125    0.0000 C   0  0  0  0  0  0  0  0  0  0  0  0
    3.6032    0.0000    0.0000 C   0  0  0  0  0  0  0  0  0  0  0  0
    4.2163    0.5520    0.0000 C   0  0  0  0  0  0  0  0  0  0  0  0
    5.0233    0.3805    0.0000 C   0  0  0  0  0  0  0  0  0  0  0  0
    3.6032   -0.8250    0.0000 C   0  0  0  0  0  0  0  0  0  0  0  0
    4.3177   -1.2375    0.0000 O   0  0  0  0  0  0  0  0  0  0  0  0
    2.8887   -1.2375    0.0000 C   0  0  0  0  0  0  0  0  0  0  0  0
    5.0321   -0.8250    0.0000 C   0  0  0  0  0  0  0  0  0  0  0  0
  1  2  1  0  0  0  0
  2  3  1  0  0  0  0
  2  4  1  0  0  0  0
  2  5  1  0  0  0  0
  5  6  4  0  0  0  0
  5  7  4  0  0  0  0
  6 12  4  0  0  0  0
  7 11  4  0  0  0  0
  8  9  1  0  0  0  0
  8 11  1  0  0  0  0
  9 10  1  0  0  0  0
  9 15  1  0  0  0  0
  9 16  1  0  0  0  0
 10 19  1  0  0  0  0
 11 12  4  0  0  0  0
 12 13  1  0  0  0  0
 13 14  2  0  0  0  0
 13 15  1  0  0  0  0
 16 17  1  0  0  0  0
 17 18  1  0  0  0  0
 18 19  1  0  0  0  0
 18 23  1  0  0  0  0
 20 21  1  0  0  0  0
 21 22  4  0  0  0  0
 21 27  4  0  0  0  0
 22 29  4  0  0  0  0
 23 24  2  0  0  0  0
 23 25  1  0  0  0  0
 25 26  4  0  0  0  0
 25 33  4  0  0  0  0
 26 27  4  0  0  0  0
 27 28  4  0  0  0  0
 28 29  4  0  0  0  0
 28 31  4  0  0  0  0
 29 30  1  0  0  0  0
 31 32  1  0  0  0  0
 31 33  4  0  0  0  0
 32 34  1  0  0  0  0
M  END
> <From>
www.bindingDB.org

> <BindingDB Reactant_set_id>
1397300

> <Ligand InChI>
InChI=1S/C26H32N4O3S/c1-15-21-17(29(5)28-15)11-16(12-19(21)33-6)23(32)30-9-7-26(8-10-30)13-18(31)22-20(14-26)34-24(27-22)25(2,3)4/h11-12H,7-10,13-14H2,1-6H3

> <Ligand InChI Key>
QLRLIASBYIQYNU-UHFFFAOYSA-N

> <BindingDB MonomerID>
663918

> <BindingDB Ligand Name>
US20240109915, Example 103

> <Target Name>
Activating signal cointegrator 1 complex subunit 1

> <Target Source Organism According to Curator or DataSource>


> <Ki (nM)>


> <IC50 (nM)>
 5.40

> <Kd (nM)>


> <EC50 (nM)>


> <kon (M-1-s-1)>


> <koff (s-1)>


> <pH>


> <Temp C>


> <Curation/DataSource>
US Patent

> <Article DOI>


> <BindingDB Entry DOI>
10.7270/Q2348QQ2

> <PMID>


> <PubChem AID>


> <Patent Number>
US20240109915

> <Authors>
Bagley, SW; Bootsma, AN; Choi, C; Dow, RL; Edmonds, DJ; Garcia-Irizarry, CN; Gerstenberger, BS; Ingle, G; O''Brien, JG; Parikh, MD; Rescourio, GC; Schmitt, DC

> <Institution>
Pfizer

> <Link to Ligand in BindingDB>
http://www.bindingdb.org/bind/chemsearch/marvin/MolStructure.jsp?monomerid=663918

> <Link to Ligand-Target Pair in BindingDB>
http://www.bindingdb.org/jsp/dbsearch/PrimarySearch_ki.jsp?energyterm=kJ/mole&tag=pol&polymerid=735&target=Activating+signal+cointegrator+1+complex+subunit+1&column=ki&startPg=0&Increment=50&submit=Search

> <Link to Ligand-Target Pair in BindingDB>
http://www.bindingdb.org/jsp/dbsearch/PrimarySearch_ki.jsp?energyterm=kJ/mole&tag=r21&monomerid=663918&enzyme=Activating+signal+cointegrator+1+complex+subunit+1&column=ki&startPg=0&Increment=50&submit=Search

> <Ligand HET ID in PDB>


> <PDB ID(s) for Ligand-Target Complex>


> <PubChem CID>


> <PubChem SID>


> <ChEBI ID of Ligand>


> <ChEMBL ID of Ligand>


> <DrugBank ID of Ligand>


> <IUPHAR_GRAC ID of Ligand>


> <KEGG ID of Ligand>


> <ZINC ID of Ligand>


> <Number of Protein Chains in Target (bigger than 1 implies a multichain complex)>
1

> <BindingDB Target Chain Sequence>
MEVLRPQLIRIDGRNYRKNPVQEQTYQHEEDEEDFYQGSMECADEPCDAYEVEQTPQGFRSTLRAPSLLYNLIHLNTSNDCGFQKITLDCQNIYTWKSRHIVGKRGDTRKKIEMETKTSISIPKPGQDGEIVITGQHRNGVISARTRIDVLLDTFRRKQPFTHFLAFFLNEVEVQEGFLRFQEEVLAKCSMDHGVDSSIFQNPKKLHLTIGMLVLLSEEEIQQTCEMLQQCKEEFINDISGGKPLEVEMAGIEYMNDDPGMVDVLYAKVHMKDGSNRLQELVDRVLERFQASGLIVKEWNSVKLHATVMNTLFRKDPNAEGRYNLYTAEGKYIFKERESFDGRNILKSFALLPRLEYNDAISAHCNLCLPGSSDSPASASQVAGITGVSDAYSQSLPGKS

> <PDB ID(s) of Target Chain>


> <UniProt (SwissProt) Recommended Name of Target Chain>
Activating signal cointegrator 1 complex subunit 1

> <UniProt (SwissProt) Entry Name of Target Chain>
ASCC1_HUMAN

> <UniProt (SwissProt) Primary ID of Target Chain>
Q8N9N2

> <UniProt (SwissProt) Secondary ID(s) of Target Chain>
Q5SW06 Q5SW07 Q96EI8 Q9Y307

> <UniProt (SwissProt) Alternative ID(s) of Target Chain>


> <UniProt (TrEMBL) Submitted Name of Target Chain>


> <UniProt (TrEMBL) Entry Name of Target Chain>


> <UniProt (TrEMBL) Primary ID of Target Chain>


> <UniProt (TrEMBL) Secondary ID(s) of Target Chain>


> <UniProt (TrEMBL) Alternative ID(s) of Target Chain>


$$$$
00243001.cdx
  Mrv0541 06272400352D          

 33 37  0  0  0  0            999 V2000
   -3.0333    0.8250    0.0000 C   0  0  0  0  0  0  0  0  0  0  0  0
   -3.0333    0.0000    0.0000 C   0  0  0  0  0  0  0  0  0  0  0  0
   -2.3188   -0.4125    0.0000 C   0  0  0  0  0  0  0  0  0  0  0  0
   -1.6044    0.0000    0.0000 C   0  0  0  0  0  0  0  0  0  0  0  0
   -1.6044    0.8250    0.0000 C   0  0  0  0  0  0  0  0  0  0  0  0
   -2.3188    1.2375    0.0000 C   0  0  0  0  0  0  0  0  0  0  0  0
   -1.6044   -0.8250    0.0000 C   0  0  0  0  0  0  0  0  0  0  0  0
   -0.8899   -1.2375    0.0000 C   0  0  0  0  0  0  0  0  0  0  0  0
   -0.1754   -0.8250    0.0000 N   0  0  0  0  0  0  0  0  0  0  0  0
   -0.1754    0.0000    0.0000 C   0  0  0  0  0  0  0  0  0  0  0  0
   -0.8899    0.4125    0.0000 C   0  0  0  0  0  0  0  0  0  0  0  0
    0.5391   -1.2375    0.0000 C   0  0  0  0  0  0  0  0  0  0  0  0
    1.2535   -0.8250    0.0000 C   0  0  0  0  0  0  0  0  0  0  0  0
    0.5391   -2.0625    0.0000 O   0  0  0  0  0  0  0  0  0  0  0  0
    1.9680   -1.2375    0.0000 C   0  0  0  0  0  0  0  0  0  0  0  0
    2.6825   -0.8250    0.0000 C   0  0  0  0  0  0  0  0  0  0  0  0
    2.6825    0.0000    0.0000 C   0  0  0  0  0  0  0  0  0  0  0  0
    1.9680    0.4125    0.0000 C   0  0  0  0  0  0  0  0  0  0  0  0
    1.2535    0.0000    0.0000 C   0  0  0  0  0  0  0  0  0  0  0  0
    1.9680    1.2375    0.0000 C   0  0  0  0  0  0  0  0  0  0  0  0
   -2.3188    2.0625    0.0000 O   0  0  0  0  0  0  0  0  0  0  0  0
   -3.8179    1.0799    0.0000 N   0  0  0  0  0  0  0  0  0  0  0  0
   -4.3028    0.4125    0.0000 C   0  0  0  0  0  0  0  0  0  0  0  0
   -3.8179   -0.2549    0.0000 S   0  0  0  0  0  0  0  0  0  0  0  0
   -5.1278    0.4125    0.0000 C   0  0  0  0  0  0  0  0  0  0  0  0
   -5.5403    1.1270    0.0000 C   0  0  0  0  0  0  0  0  0  0  0  0
   -5.5403   -0.3020    0.0000 C   0  0  0  0  0  0  0  0  0  0  0  0
    3.3969   -1.2375    0.0000 N   0  0  0  0  0  0  0  0  0  0  0  0
    4.1114   -0.8250    0.0000 C   0  0  0  0  0  0  0  0  0  0  0  0
    4.1114    0.0000    0.0000 C   0  0  0  0  0  0  0  0  0  0  0  0
    3.3969    0.4125    0.0000 C   0  0  0  0  0  0  0  0  0  0  0  0
    4.8259   -1.2375    0.0000 N   0  0  0  0  0  0  0  0  0  0  0  0
    5.5403   -0.8250    0.0000 C   0  0  0  0  0  0  0  0  0  0  0  0
  1  2  4  0  0  0  0
  2  3  1  0  0  0  0
  3  4  1  0  0  0  0
  4  5  1  0  0  0  0
  5  6  1  0  0  0  0
  6  1  1  0  0  0  0
  4  7  1  0  0  0  0
  7  8  1  0  0  0  0
  8  9  1  0  0  0  0
  9 10  1  0  0  0  0
 10 11  1  0  0  0  0
 11  4  1  0  0  0  0
  9 12  1  0  0  0  0
 12 13  1  0  0  0  0
 12 14  2  0  0  0  0
 13 15  4  0  0  0  0
 15 16  4  0  0  0  0
 16 17  4  0  0  0  0
 17 18  4  0  0  0  0
 18 19  4  0  0  0  0
 19 13  4  0  0  0  0
 18 20  1  0  0  0  0
  6 21  2  0  0  0  0
  1 22  4  0  0  0  0
 22 23  4  0  0  0  0
 23 24  4  0  0  0  0
 24  2  4  0  0  0  0
 23 25  1  0  0  0  0
 25 26  1  0  0  0  0
 25 27  1  0  0  0  0
 16 28  4  0  0  0  0
 28 29  4  0  0  0  0
 29 30  4  0  0  0  0
 30 31  4  0  0  0  0
 31 17  4  0  0  0  0
 29 32  1  0  0  0  0
 32 33  1  0  0  0  0
M  END
> <From>
www.bindingDB.org

> <BindingDB Reactant_set_id>
1397209

> <Ligand InChI>
InChI=1S/C26H30N4O2S/c1-15(2)24-29-23-20(31)13-26(14-21(23)33-24)7-9-30(10-8-26)25(32)17-11-16(3)18-5-6-22(27-4)28-19(18)12-17/h5-6,11-12,15H,7-10,13-14H2,1-4H3,(H,27,28)

> <Ligand InChI Key>
XXPMRSZHRHVKEM-UHFFFAOYSA-N

> <BindingDB MonomerID>
663827

> <BindingDB Ligand Name>
US20240109915, Example 8

> <Target Name>
Activating signal cointegrator 1 complex subunit 1

> <Target Source Organism According to Curator or DataSource>


> <Ki (nM)>


> <IC50 (nM)>
 5.50

> <Kd (nM)>


> <EC50 (nM)>


> <kon (M-1-s-1)>


> <koff (s-1)>


> <pH>


> <Temp C>


> <Curation/DataSource>
US Patent

> <Article DOI>


> <BindingDB Entry DOI>
10.7270/Q2348QQ2

> <PMID>


> <PubChem AID>


> <Patent Number>
US20240109915

> <Authors>
Bagley, SW; Bootsma, AN; Choi, C; Dow, RL; Edmonds, DJ; Garcia-Irizarry, CN; Gerstenberger, BS; Ingle, G; O''Brien, JG; Parikh, MD; Rescourio, GC; Schmitt, DC

> <Institution>
Pfizer

> <Link to Ligand in BindingDB>
http://www.bindingdb.org/bind/chemsearch/marvin/MolStructure.jsp?monomerid=663827

> <Link to Ligand-Target Pair in BindingDB>
http://www.bindingdb.org/jsp/dbsearch/PrimarySearch_ki.jsp?energyterm=kJ/mole&tag=pol&polymerid=735&target=Activating+signal+cointegrator+1+complex+subunit+1&column=ki&startPg=0&Increment=50&submit=Search

> <Link to Ligand-Target Pair in BindingDB>
http://www.bindingdb.org/jsp/dbsearch/PrimarySearch_ki.jsp?energyterm=kJ/mole&tag=r21&monomerid=663827&enzyme=Activating+signal+cointegrator+1+complex+subunit+1&column=ki&startPg=0&Increment=50&submit=Search

> <Ligand HET ID in PDB>


> <PDB ID(s) for Ligand-Target Complex>


> <PubChem CID>


> <PubChem SID>


> <ChEBI ID of Ligand>


> <ChEMBL ID of Ligand>


> <DrugBank ID of Ligand>


> <IUPHAR_GRAC ID of Ligand>


> <KEGG ID of Ligand>


> <ZINC ID of Ligand>


> <Number of Protein Chains in Target (bigger than 1 implies a multichain complex)>
1

> <BindingDB Target Chain Sequence>
MEVLRPQLIRIDGRNYRKNPVQEQTYQHEEDEEDFYQGSMECADEPCDAYEVEQTPQGFRSTLRAPSLLYNLIHLNTSNDCGFQKITLDCQNIYTWKSRHIVGKRGDTRKKIEMETKTSISIPKPGQDGEIVITGQHRNGVISARTRIDVLLDTFRRKQPFTHFLAFFLNEVEVQEGFLRFQEEVLAKCSMDHGVDSSIFQNPKKLHLTIGMLVLLSEEEIQQTCEMLQQCKEEFINDISGGKPLEVEMAGIEYMNDDPGMVDVLYAKVHMKDGSNRLQELVDRVLERFQASGLIVKEWNSVKLHATVMNTLFRKDPNAEGRYNLYTAEGKYIFKERESFDGRNILKSFALLPRLEYNDAISAHCNLCLPGSSDSPASASQVAGITGVSDAYSQSLPGKS

> <PDB ID(s) of Target Chain>


> <UniProt (SwissProt) Recommended Name of Target Chain>
Activating signal cointegrator 1 complex subunit 1

> <UniProt (SwissProt) Entry Name of Target Chain>
ASCC1_HUMAN

> <UniProt (SwissProt) Primary ID of Target Chain>
Q8N9N2

> <UniProt (SwissProt) Secondary ID(s) of Target Chain>
Q5SW06 Q5SW07 Q96EI8 Q9Y307

> <UniProt (SwissProt) Alternative ID(s) of Target Chain>


> <UniProt (TrEMBL) Submitted Name of Target Chain>


> <UniProt (TrEMBL) Entry Name of Target Chain>


> <UniProt (TrEMBL) Primary ID of Target Chain>


> <UniProt (TrEMBL) Secondary ID(s) of Target Chain>


> <UniProt (TrEMBL) Alternative ID(s) of Target Chain>


$$$$
00343001.cdx
  Mrv0541 06272400352D          

 35 39  0  0  0  0            999 V2000
   -3.3024    0.6052    0.0000 C   0  0  0  0  0  0  0  0  0  0  0  0
   -2.8175    1.2727    0.0000 N   0  0  0  0  0  0  0  0  0  0  0  0
   -4.1274    0.6052    0.0000 C   0  0  0  0  0  0  0  0  0  0  0  0
   -2.8175   -0.0622    0.0000 S   0  0  0  0  0  0  0  0  0  0  0  0
   -4.9524    0.6052    0.0000 C   0  0  0  0  0  0  0  0  0  0  0  0
   -4.5399   -0.1093    0.0000 C   0  0  0  0  0  0  0  0  0  0  0  0
   -4.5399    1.3197    0.0000 C   0  0  0  0  0  0  0  0  0  0  0  0
   -2.0329    0.1927    0.0000 C   0  0  0  0  0  0  0  0  0  0  0  0
   -2.0329    1.0177    0.0000 C   0  0  0  0  0  0  0  0  0  0  0  0
   -1.3184   -0.2198    0.0000 C   0  0  0  0  0  0  0  0  0  0  0  0
   -1.3184    1.4302    0.0000 C   0  0  0  0  0  0  0  0  0  0  0  0
   -1.3184    2.2552    0.0000 O   0  0  0  0  0  0  0  0  0  0  0  0
   -0.6039    1.0177    0.0000 C   0  0  0  0  0  0  0  0  0  0  0  0
   -0.6039    0.1927    0.0000 C   0  0  0  0  0  0  0  0  0  0  0  0
    0.1105    0.6052    0.0000 C   0  0  0  0  0  0  0  0  0  0  0  0
    0.8250    0.1927    0.0000 C   0  0  0  0  0  0  0  0  0  0  0  0
    0.8250   -0.6323    0.0000 N   0  0  0  0  0  0  0  0  0  0  0  0
   -0.6039   -0.6323    0.0000 C   0  0  0  0  0  0  0  0  0  0  0  0
    0.1105   -1.0448    0.0000 C   0  0  0  0  0  0  0  0  0  0  0  0
    4.4675    0.4477    0.0000 N   0  0  0  0  0  0  0  0  0  0  0  0
    4.9524   -0.2198    0.0000 N   0  0  0  0  0  0  0  0  0  0  0  0
    2.9684    1.4302    0.0000 O   0  0  0  0  0  0  0  0  0  0  0  0
    2.2539    1.8427    0.0000 C   0  0  0  0  0  0  0  0  0  0  0  0
    2.2539   -0.6323    0.0000 C   0  0  0  0  0  0  0  0  0  0  0  0
    2.2539    0.1927    0.0000 C   0  0  0  0  0  0  0  0  0  0  0  0
    2.9684    0.6052    0.0000 C   0  0  0  0  0  0  0  0  0  0  0  0
    2.9684   -1.0448    0.0000 C   0  0  0  0  0  0  0  0  0  0  0  0
    1.5395   -1.0448    0.0000 C   0  0  0  0  0  0  0  0  0  0  0  0
    1.5395   -1.8698    0.0000 O   0  0  0  0  0  0  0  0  0  0  0  0
    3.6829    0.1927    0.0000 C   0  0  0  0  0  0  0  0  0  0  0  0
    3.6829   -0.6323    0.0000 C   0  0  0  0  0  0  0  0  0  0  0  0
    4.4675   -0.8872    0.0000 C   0  0  0  0  0  0  0  0  0  0  0  0
    4.7224   -1.6718    0.0000 C   0  0  0  0  0  0  0  0  0  0  0  0
    4.1391   -2.2552    0.0000 C   0  0  0  0  0  0  0  0  0  0  0  0
    4.7224    1.2323    0.0000 C   0  0  0  0  0  0  0  0  0  0  0  0
  1  2  4  0  0  0  0
  1  3  1  0  0  0  0
  1  4  4  0  0  0  0
  2  9  4  0  0  0  0
  3  5  1  0  0  0  0
  3  6  1  0  0  0  0
  3  7  1  0  0  0  0
  4  8  4  0  0  0  0
  8  9  4  0  0  0  0
  8 10  1  0  0  0  0
  9 11  1  0  0  0  0
 10 14  1  0  0  0  0
 11 12  2  0  0  0  0
 11 13  1  0  0  0  0
 13 14  1  0  0  0  0
 14 15  1  0  0  0  0
 14 18  1  0  0  0  0
 15 16  1  0  0  0  0
 16 17  1  0  0  0  0
 17 19  1  0  0  0  0
 17 28  1  0  0  0  0
 18 19  1  0  0  0  0
 20 21  4  0  0  0  0
 20 30  4  0  0  0  0
 20 35  1  0  0  0  0
 21 32  4  0  0  0  0
 22 23  1  0  0  0  0
 22 26  1  0  0  0  0
 24 25  4  0  0  0  0
 24 27  4  0  0  0  0
 24 28  1  0  0  0  0
 25 26  4  0  0  0  0
 26 30  4  0  0  0  0
 27 31  4  0  0  0  0
 28 29  2  0  0  0  0
 30 31  4  0  0  0  0
 31 32  4  0  0  0  0
 32 33  1  0  0  0  0
 33 34  1  0  0  0  0
M  END
> <From>
www.bindingDB.org

> <BindingDB Reactant_set_id>
1397305

> <Ligand InChI>
InChI=1S/C27H34N4O3S/c1-7-18-17-12-16(13-20(34-6)23(17)30(5)29-18)24(33)31-10-8-27(9-11-31)14-19(32)22-21(15-27)35-25(28-22)26(2,3)4/h12-13H,7-11,14-15H2,1-6H3

> <Ligand InChI Key>
NDFZOIUOPLCNCG-UHFFFAOYSA-N

> <BindingDB MonomerID>
663923

> <BindingDB Ligand Name>
US20240109915, Example 108

> <Target Name>
Activating signal cointegrator 1 complex subunit 1

> <Target Source Organism According to Curator or DataSource>


> <Ki (nM)>


> <IC50 (nM)>
 5.60

> <Kd (nM)>


> <EC50 (nM)>


> <kon (M-1-s-1)>


> <koff (s-1)>


> <pH>


> <Temp C>


> <Curation/DataSource>
US Patent

> <Article DOI>


> <BindingDB Entry DOI>
10.7270/Q2348QQ2

> <PMID>


> <PubChem AID>


> <Patent Number>
US20240109915

> <Authors>
Bagley, SW; Bootsma, AN; Choi, C; Dow, RL; Edmonds, DJ; Garcia-Irizarry, CN; Gerstenberger, BS; Ingle, G; O''Brien, JG; Parikh, MD; Rescourio, GC; Schmitt, DC

> <Institution>
Pfizer

> <Link to Ligand in BindingDB>
http://www.bindingdb.org/bind/chemsearch/marvin/MolStructure.jsp?monomerid=663923

> <Link to Ligand-Target Pair in BindingDB>
http://www.bindingdb.org/jsp/dbsearch/PrimarySearch_ki.jsp?energyterm=kJ/mole&tag=pol&polymerid=735&target=Activating+signal+cointegrator+1+complex+subunit+1&column=ki&startPg=0&Increment=50&submit=Search

> <Link to Ligand-Target Pair in BindingDB>
http://www.bindingdb.org/jsp/dbsearch/PrimarySearch_ki.jsp?energyterm=kJ/mole&tag=r21&monomerid=663923&enzyme=Activating+signal+cointegrator+1+complex+subunit+1&column=ki&startPg=0&Increment=50&submit=Search

> <Ligand HET ID in PDB>


> <PDB ID(s) for Ligand-Target Complex>


> <PubChem CID>


> <PubChem SID>


> <ChEBI ID of Ligand>


> <ChEMBL ID of Ligand>


> <DrugBank ID of Ligand>


> <IUPHAR_GRAC ID of Ligand>


> <KEGG ID of Ligand>


> <ZINC ID of Ligand>


> <Number of Protein Chains in Target (bigger than 1 implies a multichain complex)>
1

> <BindingDB Target Chain Sequence>
MEVLRPQLIRIDGRNYRKNPVQEQTYQHEEDEEDFYQGSMECADEPCDAYEVEQTPQGFRSTLRAPSLLYNLIHLNTSNDCGFQKITLDCQNIYTWKSRHIVGKRGDTRKKIEMETKTSISIPKPGQDGEIVITGQHRNGVISARTRIDVLLDTFRRKQPFTHFLAFFLNEVEVQEGFLRFQEEVLAKCSMDHGVDSSIFQNPKKLHLTIGMLVLLSEEEIQQTCEMLQQCKEEFINDISGGKPLEVEMAGIEYMNDDPGMVDVLYAKVHMKDGSNRLQELVDRVLERFQASGLIVKEWNSVKLHATVMNTLFRKDPNAEGRYNLYTAEGKYIFKERESFDGRNILKSFALLPRLEYNDAISAHCNLCLPGSSDSPASASQVAGITGVSDAYSQSLPGKS

> <PDB ID(s) of Target Chain>


> <UniProt (SwissProt) Recommended Name of Target Chain>
Activating signal cointegrator 1 complex subunit 1

> <UniProt (SwissProt) Entry Name of Target Chain>
ASCC1_HUMAN

> <UniProt (SwissProt) Primary ID of Target Chain>
Q8N9N2

> <UniProt (SwissProt) Secondary ID(s) of Target Chain>
Q5SW06 Q5SW07 Q96EI8 Q9Y307

> <UniProt (SwissProt) Alternative ID(s) of Target Chain>


> <UniProt (TrEMBL) Submitted Name of Target Chain>


> <UniProt (TrEMBL) Entry Name of Target Chain>


> <UniProt (TrEMBL) Primary ID of Target Chain>


> <UniProt (TrEMBL) Secondary ID(s) of Target Chain>


> <UniProt (TrEMBL) Alternative ID(s) of Target Chain>


$$$$
00291001.cdx
  Mrv0541 06272400352D          

 33 37  0  0  0  0            999 V2000
   -3.2248    0.2885    0.0000 C   0  0  0  0  0  0  0  0  0  0  0  0
   -2.7399    0.9560    0.0000 N   0  0  0  0  0  0  0  0  0  0  0  0
   -4.0498    0.2885    0.0000 C   0  0  0  0  0  0  0  0  0  0  0  0
   -2.7399   -0.3789    0.0000 S   0  0  0  0  0  0  0  0  0  0  0  0
   -4.8748    0.2885    0.0000 C   0  0  0  0  0  0  0  0  0  0  0  0
   -4.4623   -0.4259    0.0000 C   0  0  0  0  0  0  0  0  0  0  0  0
   -4.4623    1.0030    0.0000 C   0  0  0  0  0  0  0  0  0  0  0  0
   -1.2408   -0.5365    0.0000 C   0  0  0  0  0  0  0  0  0  0  0  0
   -0.5263   -0.1240    0.0000 C   0  0  0  0  0  0  0  0  0  0  0  0
   -0.5263   -0.9490    0.0000 C   0  0  0  0  0  0  0  0  0  0  0  0
   -1.9552   -0.1240    0.0000 C   0  0  0  0  0  0  0  0  0  0  0  0
   -1.9552    0.7010    0.0000 C   0  0  0  0  0  0  0  0  0  0  0  0
   -1.2408    1.1135    0.0000 C   0  0  0  0  0  0  0  0  0  0  0  0
   -1.2408    1.9385    0.0000 O   0  0  0  0  0  0  0  0  0  0  0  0
   -0.5263    0.7010    0.0000 C   0  0  0  0  0  0  0  0  0  0  0  0
    0.1882    0.2885    0.0000 C   0  0  0  0  0  0  0  0  0  0  0  0
    0.9026   -0.1240    0.0000 C   0  0  0  0  0  0  0  0  0  0  0  0
    0.9026   -0.9490    0.0000 N   0  0  0  0  0  0  0  0  0  0  0  0
    0.1882   -1.3615    0.0000 C   0  0  0  0  0  0  0  0  0  0  0  0
    2.3316   -0.9490    0.0000 C   0  0  0  0  0  0  0  0  0  0  0  0
    1.6171   -1.3615    0.0000 C   0  0  0  0  0  0  0  0  0  0  0  0
    2.4178   -0.1285    0.0000 C   0  0  0  0  0  0  0  0  0  0  0  0
    3.2248    0.0430    0.0000 C   0  0  0  0  0  0  0  0  0  0  0  0
    3.6373    0.7575    0.0000 C   0  0  0  0  0  0  0  0  0  0  0  0
    3.2248    1.4720    0.0000 O   0  0  0  0  0  0  0  0  0  0  0  0
    4.4623    0.7575    0.0000 C   0  0  0  0  0  0  0  0  0  0  0  0
    4.8748    0.0430    0.0000 C   0  0  0  0  0  0  0  0  0  0  0  0
    4.4623   -0.6714    0.0000 C   0  0  0  0  0  0  0  0  0  0  0  0
    4.8748   -1.3859    0.0000 C   0  0  0  0  0  0  0  0  0  0  0  0
    3.6373   -0.6714    0.0000 C   0  0  0  0  0  0  0  0  0  0  0  0
    3.0853   -1.2845    0.0000 N   0  0  0  0  0  0  0  0  0  0  0  0
    1.6171   -2.1865    0.0000 O   0  0  0  0  0  0  0  0  0  0  0  0
    3.6373    2.1865    0.0000 C   0  0  0  0  0  0  0  0  0  0  0  0
  1  2  4  0  0  0  0
  1  3  1  0  0  0  0
  1  4  4  0  0  0  0
  2 12  4  0  0  0  0
  3  5  1  0  0  0  0
  3  6  1  0  0  0  0
  3  7  1  0  0  0  0
  4 11  4  0  0  0  0
  8  9  1  0  0  0  0
  8 11  1  0  0  0  0
  9 10  1  0  0  0  0
  9 15  1  0  0  0  0
  9 16  1  0  0  0  0
 10 19  1  0  0  0  0
 11 12  4  0  0  0  0
 12 13  1  0  0  0  0
 13 14  2  0  0  0  0
 13 15  1  0  0  0  0
 16 17  1  0  0  0  0
 17 18  1  0  0  0  0
 18 19  1  0  0  0  0
 18 21  1  0  0  0  0
 20 21  1  0  0  0  0
 20 22  4  0  0  0  0
 20 31  4  0  0  0  0
 21 32  2  0  0  0  0
 22 23  4  0  0  0  0
 23 24  4  0  0  0  0
 23 30  4  0  0  0  0
 24 25  1  0  0  0  0
 24 26  4  0  0  0  0
 25 33  1  0  0  0  0
 26 27  4  0  0  0  0
 27 28  4  0  0  0  0
 28 29  1  0  0  0  0
 28 30  4  0  0  0  0
 30 31  4  0  0  0  0
M  STY  1   1 DAT
M  SAL   1  1  31
M  SDT   1 MRV_IMPLICIT_H                                        
M  SDD   1     0.0000    0.0000    DR    ALL  0       0  
M  SED   1 IMPL_H1
M  END
> <From>
www.bindingDB.org

> <BindingDB Reactant_set_id>
1397254

> <Ligand InChI>
InChI=1S/C26H31N3O3S/c1-15-6-7-19(32-5)16-12-17(27-21(15)16)23(31)29-10-8-26(9-11-29)13-18(30)22-20(14-26)33-24(28-22)25(2,3)4/h6-7,12,27H,8-11,13-14H2,1-5H3

> <Ligand InChI Key>
GYTPQZKMHLDCCL-UHFFFAOYSA-N

> <BindingDB MonomerID>
663872

> <BindingDB Ligand Name>
US20240109915, Example 56

> <Target Name>
Activating signal cointegrator 1 complex subunit 1

> <Target Source Organism According to Curator or DataSource>


> <Ki (nM)>


> <IC50 (nM)>
 5.80

> <Kd (nM)>


> <EC50 (nM)>


> <kon (M-1-s-1)>


> <koff (s-1)>


> <pH>


> <Temp C>


> <Curation/DataSource>
US Patent

> <Article DOI>


> <BindingDB Entry DOI>
10.7270/Q2348QQ2

> <PMID>


> <PubChem AID>


> <Patent Number>
US20240109915

> <Authors>
Bagley, SW; Bootsma, AN; Choi, C; Dow, RL; Edmonds, DJ; Garcia-Irizarry, CN; Gerstenberger, BS; Ingle, G; O''Brien, JG; Parikh, MD; Rescourio, GC; Schmitt, DC

> <Institution>
Pfizer

> <Link to Ligand in BindingDB>
http://www.bindingdb.org/bind/chemsearch/marvin/MolStructure.jsp?monomerid=663872

> <Link to Ligand-Target Pair in BindingDB>
http://www.bindingdb.org/jsp/dbsearch/PrimarySearch_ki.jsp?energyterm=kJ/mole&tag=pol&polymerid=735&target=Activating+signal+cointegrator+1+complex+subunit+1&column=ki&startPg=0&Increment=50&submit=Search

> <Link to Ligand-Target Pair in BindingDB>
http://www.bindingdb.org/jsp/dbsearch/PrimarySearch_ki.jsp?energyterm=kJ/mole&tag=r21&monomerid=663872&enzyme=Activating+signal+cointegrator+1+complex+subunit+1&column=ki&startPg=0&Increment=50&submit=Search

> <Ligand HET ID in PDB>


> <PDB ID(s) for Ligand-Target Complex>


> <PubChem CID>


> <PubChem SID>


> <ChEBI ID of Ligand>


> <ChEMBL ID of Ligand>


> <DrugBank ID of Ligand>


> <IUPHAR_GRAC ID of Ligand>


> <KEGG ID of Ligand>


> <ZINC ID of Ligand>


> <Number of Protein Chains in Target (bigger than 1 implies a multichain complex)>
1

> <BindingDB Target Chain Sequence>
MEVLRPQLIRIDGRNYRKNPVQEQTYQHEEDEEDFYQGSMECADEPCDAYEVEQTPQGFRSTLRAPSLLYNLIHLNTSNDCGFQKITLDCQNIYTWKSRHIVGKRGDTRKKIEMETKTSISIPKPGQDGEIVITGQHRNGVISARTRIDVLLDTFRRKQPFTHFLAFFLNEVEVQEGFLRFQEEVLAKCSMDHGVDSSIFQNPKKLHLTIGMLVLLSEEEIQQTCEMLQQCKEEFINDISGGKPLEVEMAGIEYMNDDPGMVDVLYAKVHMKDGSNRLQELVDRVLERFQASGLIVKEWNSVKLHATVMNTLFRKDPNAEGRYNLYTAEGKYIFKERESFDGRNILKSFALLPRLEYNDAISAHCNLCLPGSSDSPASASQVAGITGVSDAYSQSLPGKS

> <PDB ID(s) of Target Chain>


> <UniProt (SwissProt) Recommended Name of Target Chain>
Activating signal cointegrator 1 complex subunit 1

> <UniProt (SwissProt) Entry Name of Target Chain>
ASCC1_HUMAN

> <UniProt (SwissProt) Primary ID of Target Chain>
Q8N9N2

> <UniProt (SwissProt) Secondary ID(s) of Target Chain>
Q5SW06 Q5SW07 Q96EI8 Q9Y307

> <UniProt (SwissProt) Alternative ID(s) of Target Chain>


> <UniProt (TrEMBL) Submitted Name of Target Chain>


> <UniProt (TrEMBL) Entry Name of Target Chain>


> <UniProt (TrEMBL) Primary ID of Target Chain>


> <UniProt (TrEMBL) Secondary ID(s) of Target Chain>


> <UniProt (TrEMBL) Alternative ID(s) of Target Chain>


$$$$
00317001.cdx
  Mrv0541 06272400352D          

 32 36  0  0  0  0            999 V2000
    4.4675   -1.0799    0.0000 N   0  0  0  0  0  0  0  0  0  0  0  0
    4.7224   -1.8646    0.0000 C   0  0  0  0  0  0  0  0  0  0  0  0
   -4.9524    0.4125    0.0000 C   0  0  0  0  0  0  0  0  0  0  0  0
   -4.1274    0.4125    0.0000 C   0  0  0  0  0  0  0  0  0  0  0  0
   -4.5399    1.1270    0.0000 C   0  0  0  0  0  0  0  0  0  0  0  0
   -4.5399   -0.3020    0.0000 C   0  0  0  0  0  0  0  0  0  0  0  0
   -3.3024    0.4125    0.0000 C   0  0  0  0  0  0  0  0  0  0  0  0
   -2.8175    1.0799    0.0000 N   0  0  0  0  0  0  0  0  0  0  0  0
   -2.8175   -0.2549    0.0000 S   0  0  0  0  0  0  0  0  0  0  0  0
   -0.6039    0.0000    0.0000 C   0  0  0  0  0  0  0  0  0  0  0  0
   -0.6039   -0.8250    0.0000 C   0  0  0  0  0  0  0  0  0  0  0  0
    0.1105   -1.2375    0.0000 C   0  0  0  0  0  0  0  0  0  0  0  0
   -1.3184   -0.4125    0.0000 C   0  0  0  0  0  0  0  0  0  0  0  0
   -2.0329    0.0000    0.0000 C   0  0  0  0  0  0  0  0  0  0  0  0
   -2.0329    0.8250    0.0000 C   0  0  0  0  0  0  0  0  0  0  0  0
   -1.3184    1.2375    0.0000 C   0  0  0  0  0  0  0  0  0  0  0  0
   -1.3184    2.0625    0.0000 O   0  0  0  0  0  0  0  0  0  0  0  0
   -0.6039    0.8250    0.0000 C   0  0  0  0  0  0  0  0  0  0  0  0
    0.1105    0.4125    0.0000 C   0  0  0  0  0  0  0  0  0  0  0  0
    0.8250    0.0000    0.0000 C   0  0  0  0  0  0  0  0  0  0  0  0
    0.8250   -0.8250    0.0000 N   0  0  0  0  0  0  0  0  0  0  0  0
    2.2539   -0.8250    0.0000 C   0  0  0  0  0  0  0  0  0  0  0  0
    1.5395   -1.2375    0.0000 C   0  0  0  0  0  0  0  0  0  0  0  0
    1.5395   -2.0625    0.0000 O   0  0  0  0  0  0  0  0  0  0  0  0
    2.2539    0.0000    0.0000 C   0  0  0  0  0  0  0  0  0  0  0  0
    2.9684    0.4125    0.0000 C   0  0  0  0  0  0  0  0  0  0  0  0
    2.9684    1.2375    0.0000 C   0  0  0  0  0  0  0  0  0  0  0  0
    3.6829    0.0000    0.0000 C   0  0  0  0  0  0  0  0  0  0  0  0
    4.4675    0.2549    0.0000 C   0  0  0  0  0  0  0  0  0  0  0  0
    4.9524   -0.4125    0.0000 C   0  0  0  0  0  0  0  0  0  0  0  0
    3.6829   -0.8250    0.0000 C   0  0  0  0  0  0  0  0  0  0  0  0
    2.9684   -1.2375    0.0000 C   0  0  0  0  0  0  0  0  0  0  0  0
  1  2  1  0  0  0  0
  1 30  4  0  0  0  0
  1 31  4  0  0  0  0
  3  4  1  0  0  0  0
  4  5  1  0  0  0  0
  4  6  1  0  0  0  0
  4  7  1  0  0  0  0
  7  8  4  0  0  0  0
  7  9  4  0  0  0  0
  8 15  4  0  0  0  0
  9 14  4  0  0  0  0
 10 11  1  0  0  0  0
 10 13  1  0  0  0  0
 10 18  1  0  0  0  0
 10 19  1  0  0  0  0
 11 12  1  0  0  0  0
 12 21  1  0  0  0  0
 13 14  1  0  0  0  0
 14 15  4  0  0  0  0
 15 16  1  0  0  0  0
 16 17  2  0  0  0  0
 16 18  1  0  0  0  0
 19 20  1  0  0  0  0
 20 21  1  0  0  0  0
 21 23  1  0  0  0  0
 22 23  1  0  0  0  0
 25 22  4  0  0  0  0
 22 32  4  0  0  0  0
 23 24  2  0  0  0  0
 25 26  4  0  0  0  0
 26 27  1  0  0  0  0
 26 28  4  0  0  0  0
 28 29  4  0  0  0  0
 28 31  4  0  0  0  0
 29 30  4  0  0  0  0
 31 32  4  0  0  0  0
M  END
> <From>
www.bindingDB.org

> <BindingDB Reactant_set_id>
1397279

> <Ligand InChI>
InChI=1S/C26H31N3O2S/c1-16-12-17(13-19-18(16)6-9-28(19)5)23(31)29-10-7-26(8-11-29)14-20(30)22-21(15-26)32-24(27-22)25(2,3)4/h6,9,12-13H,7-8,10-11,14-15H2,1-5H3

> <Ligand InChI Key>
AQAPVIPHAWPCEX-UHFFFAOYSA-N

> <BindingDB MonomerID>
663897

> <BindingDB Ligand Name>
US20240109915, Example 82

> <Target Name>
Activating signal cointegrator 1 complex subunit 1

> <Target Source Organism According to Curator or DataSource>


> <Ki (nM)>


> <IC50 (nM)>
 6.10

> <Kd (nM)>


> <EC50 (nM)>


> <kon (M-1-s-1)>


> <koff (s-1)>


> <pH>


> <Temp C>


> <Curation/DataSource>
US Patent

> <Article DOI>


> <BindingDB Entry DOI>
10.7270/Q2348QQ2

> <PMID>


> <PubChem AID>


> <Patent Number>
US20240109915

> <Authors>
Bagley, SW; Bootsma, AN; Choi, C; Dow, RL; Edmonds, DJ; Garcia-Irizarry, CN; Gerstenberger, BS; Ingle, G; O''Brien, JG; Parikh, MD; Rescourio, GC; Schmitt, DC

> <Institution>
Pfizer

> <Link to Ligand in BindingDB>
http://www.bindingdb.org/bind/chemsearch/marvin/MolStructure.jsp?monomerid=663897

> <Link to Ligand-Target Pair in BindingDB>
http://www.bindingdb.org/jsp/dbsearch/PrimarySearch_ki.jsp?energyterm=kJ/mole&tag=pol&polymerid=735&target=Activating+signal+cointegrator+1+complex+subunit+1&column=ki&startPg=0&Increment=50&submit=Search

> <Link to Ligand-Target Pair in BindingDB>
http://www.bindingdb.org/jsp/dbsearch/PrimarySearch_ki.jsp?energyterm=kJ/mole&tag=r21&monomerid=663897&enzyme=Activating+signal+cointegrator+1+complex+subunit+1&column=ki&startPg=0&Increment=50&submit=Search

> <Ligand HET ID in PDB>


> <PDB ID(s) for Ligand-Target Complex>


> <PubChem CID>


> <PubChem SID>


> <ChEBI ID of Ligand>


> <ChEMBL ID of Ligand>


> <DrugBank ID of Ligand>


> <IUPHAR_GRAC ID of Ligand>


> <KEGG ID of Ligand>


> <ZINC ID of Ligand>


> <Number of Protein Chains in Target (bigger than 1 implies a multichain complex)>
1

> <BindingDB Target Chain Sequence>
MEVLRPQLIRIDGRNYRKNPVQEQTYQHEEDEEDFYQGSMECADEPCDAYEVEQTPQGFRSTLRAPSLLYNLIHLNTSNDCGFQKITLDCQNIYTWKSRHIVGKRGDTRKKIEMETKTSISIPKPGQDGEIVITGQHRNGVISARTRIDVLLDTFRRKQPFTHFLAFFLNEVEVQEGFLRFQEEVLAKCSMDHGVDSSIFQNPKKLHLTIGMLVLLSEEEIQQTCEMLQQCKEEFINDISGGKPLEVEMAGIEYMNDDPGMVDVLYAKVHMKDGSNRLQELVDRVLERFQASGLIVKEWNSVKLHATVMNTLFRKDPNAEGRYNLYTAEGKYIFKERESFDGRNILKSFALLPRLEYNDAISAHCNLCLPGSSDSPASASQVAGITGVSDAYSQSLPGKS

> <PDB ID(s) of Target Chain>


> <UniProt (SwissProt) Recommended Name of Target Chain>
Activating signal cointegrator 1 complex subunit 1

> <UniProt (SwissProt) Entry Name of Target Chain>
ASCC1_HUMAN

> <UniProt (SwissProt) Primary ID of Target Chain>
Q8N9N2

> <UniProt (SwissProt) Secondary ID(s) of Target Chain>
Q5SW06 Q5SW07 Q96EI8 Q9Y307

> <UniProt (SwissProt) Alternative ID(s) of Target Chain>


> <UniProt (TrEMBL) Submitted Name of Target Chain>


> <UniProt (TrEMBL) Entry Name of Target Chain>


> <UniProt (TrEMBL) Primary ID of Target Chain>


> <UniProt (TrEMBL) Secondary ID(s) of Target Chain>


> <UniProt (TrEMBL) Alternative ID(s) of Target Chain>


$$$$
00322001.cdx
  Mrv0541 06272400352D          

 33 37  0  0  0  0            999 V2000
   -4.9524    0.4125    0.0000 C   0  0  0  0  0  0  0  0  0  0  0  0
   -4.1274    0.4125    0.0000 C   0  0  0  0  0  0  0  0  0  0  0  0
   -4.5399    1.1270    0.0000 C   0  0  0  0  0  0  0  0  0  0  0  0
   -4.5399   -0.3020    0.0000 C   0  0  0  0  0  0  0  0  0  0  0  0
   -3.3024    0.4125    0.0000 C   0  0  0  0  0  0  0  0  0  0  0  0
   -2.8175    1.0799    0.0000 N   0  0  0  0  0  0  0  0  0  0  0  0
   -2.8175   -0.2549    0.0000 S   0  0  0  0  0  0  0  0  0  0  0  0
   -0.6039    0.0000    0.0000 C   0  0  0  0  0  0  0  0  0  0  0  0
   -0.6039   -0.8250    0.0000 C   0  0  0  0  0  0  0  0  0  0  0  0
    0.1105   -1.2375    0.0000 C   0  0  0  0  0  0  0  0  0  0  0  0
   -1.3184   -0.4125    0.0000 C   0  0  0  0  0  0  0  0  0  0  0  0
   -2.0329    0.0000    0.0000 C   0  0  0  0  0  0  0  0  0  0  0  0
   -2.0329    0.8250    0.0000 C   0  0  0  0  0  0  0  0  0  0  0  0
   -1.3184    1.2375    0.0000 C   0  0  0  0  0  0  0  0  0  0  0  0
   -1.3184    2.0625    0.0000 O   0  0  0  0  0  0  0  0  0  0  0  0
   -0.6039    0.8250    0.0000 C   0  0  0  0  0  0  0  0  0  0  0  0
    0.1105    0.4125    0.0000 C   0  0  0  0  0  0  0  0  0  0  0  0
    0.8250    0.0000    0.0000 C   0  0  0  0  0  0  0  0  0  0  0  0
    0.8250   -0.8250    0.0000 N   0  0  0  0  0  0  0  0  0  0  0  0
    3.6829   -0.8250    0.0000 C   0  0  0  0  0  0  0  0  0  0  0  0
    4.4675   -1.0799    0.0000 C   0  0  0  0  0  0  0  0  0  0  0  0
    4.7224   -1.8646    0.0000 C   0  0  0  0  0  0  0  0  0  0  0  0
    2.9684   -1.2375    0.0000 C   0  0  0  0  0  0  0  0  0  0  0  0
    2.2539   -0.8250    0.0000 C   0  0  0  0  0  0  0  0  0  0  0  0
    1.5395   -1.2375    0.0000 C   0  0  0  0  0  0  0  0  0  0  0  0
    1.5395   -2.0625    0.0000 O   0  0  0  0  0  0  0  0  0  0  0  0
    2.2539    0.0000    0.0000 C   0  0  0  0  0  0  0  0  0  0  0  0
    2.9684    0.4125    0.0000 C   0  0  0  0  0  0  0  0  0  0  0  0
    2.9684    1.2375    0.0000 C   0  0  0  0  0  0  0  0  0  0  0  0
    3.6829    0.0000    0.0000 C   0  0  0  0  0  0  0  0  0  0  0  0
    4.9524   -0.4125    0.0000 C   0  0  0  0  0  0  0  0  0  0  0  0
    4.4675    0.2549    0.0000 N   0  0  0  0  0  0  0  0  0  0  0  0
    4.7224    1.0396    0.0000 C   0  0  0  0  0  0  0  0  0  0  0  0
  1  2  1  0  0  0  0
  2  3  1  0  0  0  0
  2  4  1  0  0  0  0
  2  5  1  0  0  0  0
  5  6  4  0  0  0  0
  5  7  4  0  0  0  0
  6 13  4  0  0  0  0
  7 12  4  0  0  0  0
  8  9  1  0  0  0  0
  8 11  1  0  0  0  0
  8 16  1  0  0  0  0
  8 17  1  0  0  0  0
  9 10  1  0  0  0  0
 10 19  1  0  0  0  0
 11 12  1  0  0  0  0
 12 13  4  0  0  0  0
 13 14  1  0  0  0  0
 14 15  2  0  0  0  0
 14 16  1  0  0  0  0
 17 18  1  0  0  0  0
 18 19  1  0  0  0  0
 19 25  1  0  0  0  0
 20 21  4  0  0  0  0
 20 23  4  0  0  0  0
 20 30  4  0  0  0  0
 21 22  1  0  0  0  0
 21 31  4  0  0  0  0
 23 24  4  0  0  0  0
 24 25  1  0  0  0  0
 24 27  4  0  0  0  0
 25 26  2  0  0  0  0
 27 28  4  0  0  0  0
 28 29  1  0  0  0  0
 28 30  4  0  0  0  0
 30 32  4  0  0  0  0
 31 32  4  0  0  0  0
 32 33  1  0  0  0  0
M  END
> <From>
www.bindingDB.org

> <BindingDB Reactant_set_id>
1397284

> <Ligand InChI>
InChI=1S/C27H33N3O2S/c1-16-11-18(12-19-17(2)15-29(6)23(16)19)24(32)30-9-7-27(8-10-30)13-20(31)22-21(14-27)33-25(28-22)26(3,4)5/h11-12,15H,7-10,13-14H2,1-6H3

> <Ligand InChI Key>
BZGWMGRFIMIMII-UHFFFAOYSA-N

> <BindingDB MonomerID>
663902

> <BindingDB Ligand Name>
US20240109915, Example 87

> <Target Name>
Activating signal cointegrator 1 complex subunit 1

> <Target Source Organism According to Curator or DataSource>


> <Ki (nM)>


> <IC50 (nM)>
 6.20

> <Kd (nM)>


> <EC50 (nM)>


> <kon (M-1-s-1)>


> <koff (s-1)>


> <pH>


> <Temp C>


> <Curation/DataSource>
US Patent

> <Article DOI>


> <BindingDB Entry DOI>
10.7270/Q2348QQ2

> <PMID>


> <PubChem AID>


> <Patent Number>
US20240109915

> <Authors>
Bagley, SW; Bootsma, AN; Choi, C; Dow, RL; Edmonds, DJ; Garcia-Irizarry, CN; Gerstenberger, BS; Ingle, G; O''Brien, JG; Parikh, MD; Rescourio, GC; Schmitt, DC

> <Institution>
Pfizer

> <Link to Ligand in BindingDB>
http://www.bindingdb.org/bind/chemsearch/marvin/MolStructure.jsp?monomerid=663902

> <Link to Ligand-Target Pair in BindingDB>
http://www.bindingdb.org/jsp/dbsearch/PrimarySearch_ki.jsp?energyterm=kJ/mole&tag=pol&polymerid=735&target=Activating+signal+cointegrator+1+complex+subunit+1&column=ki&startPg=0&Increment=50&submit=Search

> <Link to Ligand-Target Pair in BindingDB>
http://www.bindingdb.org/jsp/dbsearch/PrimarySearch_ki.jsp?energyterm=kJ/mole&tag=r21&monomerid=663902&enzyme=Activating+signal+cointegrator+1+complex+subunit+1&column=ki&startPg=0&Increment=50&submit=Search

> <Ligand HET ID in PDB>


> <PDB ID(s) for Ligand-Target Complex>


> <PubChem CID>


> <PubChem SID>


> <ChEBI ID of Ligand>


> <ChEMBL ID of Ligand>


> <DrugBank ID of Ligand>


> <IUPHAR_GRAC ID of Ligand>


> <KEGG ID of Ligand>


> <ZINC ID of Ligand>


> <Number of Protein Chains in Target (bigger than 1 implies a multichain complex)>
1

> <BindingDB Target Chain Sequence>
MEVLRPQLIRIDGRNYRKNPVQEQTYQHEEDEEDFYQGSMECADEPCDAYEVEQTPQGFRSTLRAPSLLYNLIHLNTSNDCGFQKITLDCQNIYTWKSRHIVGKRGDTRKKIEMETKTSISIPKPGQDGEIVITGQHRNGVISARTRIDVLLDTFRRKQPFTHFLAFFLNEVEVQEGFLRFQEEVLAKCSMDHGVDSSIFQNPKKLHLTIGMLVLLSEEEIQQTCEMLQQCKEEFINDISGGKPLEVEMAGIEYMNDDPGMVDVLYAKVHMKDGSNRLQELVDRVLERFQASGLIVKEWNSVKLHATVMNTLFRKDPNAEGRYNLYTAEGKYIFKERESFDGRNILKSFALLPRLEYNDAISAHCNLCLPGSSDSPASASQVAGITGVSDAYSQSLPGKS

> <PDB ID(s) of Target Chain>


> <UniProt (SwissProt) Recommended Name of Target Chain>
Activating signal cointegrator 1 complex subunit 1

> <UniProt (SwissProt) Entry Name of Target Chain>
ASCC1_HUMAN

> <UniProt (SwissProt) Primary ID of Target Chain>
Q8N9N2

> <UniProt (SwissProt) Secondary ID(s) of Target Chain>
Q5SW06 Q5SW07 Q96EI8 Q9Y307

> <UniProt (SwissProt) Alternative ID(s) of Target Chain>


> <UniProt (TrEMBL) Submitted Name of Target Chain>


> <UniProt (TrEMBL) Entry Name of Target Chain>


> <UniProt (TrEMBL) Primary ID of Target Chain>


> <UniProt (TrEMBL) Secondary ID(s) of Target Chain>


> <UniProt (TrEMBL) Alternative ID(s) of Target Chain>


$$$$
00263001.cdx
  Mrv0541 06272400352D          

 34 38  0  0  0  0            999 V2000
   -2.1126    0.8250    0.0000 C   0  0  0  0  0  0  0  0  0  0  0  0
   -2.1126    0.0000    0.0000 C   0  0  0  0  0  0  0  0  0  0  0  0
   -1.3981   -0.4125    0.0000 C   0  0  0  0  0  0  0  0  0  0  0  0
   -0.6836    0.0000    0.0000 C   0  0  0  0  0  0  0  0  0  0  0  0
   -0.6836    0.8250    0.0000 C   0  0  0  0  0  0  0  0  0  0  0  0
   -1.3981    1.2375    0.0000 C   0  0  0  0  0  0  0  0  0  0  0  0
   -0.6836   -0.8250    0.0000 C   0  0  0  0  0  0  0  0  0  0  0  0
    0.0308   -1.2375    0.0000 C   0  0  0  0  0  0  0  0  0  0  0  0
    0.7453   -0.8250    0.0000 N   0  0  0  0  0  0  0  0  0  0  0  0
    0.7453    0.0000    0.0000 C   0  0  0  0  0  0  0  0  0  0  0  0
    0.0308    0.4125    0.0000 C   0  0  0  0  0  0  0  0  0  0  0  0
    1.4598   -1.2375    0.0000 C   0  0  0  0  0  0  0  0  0  0  0  0
    2.1742   -0.8250    0.0000 C   0  0  0  0  0  0  0  0  0  0  0  0
    1.4598   -2.0625    0.0000 O   0  0  0  0  0  0  0  0  0  0  0  0
    2.8887   -1.2375    0.0000 C   0  0  0  0  0  0  0  0  0  0  0  0
    3.6032   -0.8250    0.0000 C   0  0  0  0  0  0  0  0  0  0  0  0
    3.6032    0.0000    0.0000 C   0  0  0  0  0  0  0  0  0  0  0  0
    2.8887    0.4125    0.0000 C   0  0  0  0  0  0  0  0  0  0  0  0
    2.1742    0.0000    0.0000 C   0  0  0  0  0  0  0  0  0  0  0  0
   -1.3981    2.0625    0.0000 O   0  0  0  0  0  0  0  0  0  0  0  0
   -2.8972    1.0799    0.0000 N   0  0  0  0  0  0  0  0  0  0  0  0
   -3.3821    0.4125    0.0000 C   0  0  0  0  0  0  0  0  0  0  0  0
   -2.8972   -0.2549    0.0000 S   0  0  0  0  0  0  0  0  0  0  0  0
   -4.2071    0.4125    0.0000 C   0  0  0  0  0  0  0  0  0  0  0  0
   -4.6196    1.1270    0.0000 C   0  0  0  0  0  0  0  0  0  0  0  0
   -4.6196   -0.3020    0.0000 C   0  0  0  0  0  0  0  0  0  0  0  0
   -5.0321    0.4125    0.0000 C   0  0  0  0  0  0  0  0  0  0  0  0
    4.3177   -1.2375    0.0000 C   0  0  0  0  0  0  0  0  0  0  0  0
    5.0321   -0.8250    0.0000 N   0  0  0  0  0  0  0  0  0  0  0  0
    5.0321    0.0000    0.0000 C   0  0  0  0  0  0  0  0  0  0  0  0
    4.3177    0.4125    0.0000 C   0  0  0  0  0  0  0  0  0  0  0  0
    4.3177   -2.0625    0.0000 C   0  0  0  0  0  0  0  0  0  0  0  0
    2.8887    1.2375    0.0000 O   0  0  0  0  0  0  0  0  0  0  0  0
    2.1742    1.6500    0.0000 C   0  0  0  0  0  0  0  0  0  0  0  0
  1  2  4  0  0  0  0
  2  3  1  0  0  0  0
  3  4  1  0  0  0  0
  4  5  1  0  0  0  0
  5  6  1  0  0  0  0
  6  1  1  0  0  0  0
  4  7  1  0  0  0  0
  7  8  1  0  0  0  0
  8  9  1  0  0  0  0
  9 10  1  0  0  0  0
 10 11  1  0  0  0  0
 11  4  1  0  0  0  0
  9 12  1  0  0  0  0
 12 13  1  0  0  0  0
 12 14  2  0  0  0  0
 13 15  4  0  0  0  0
 15 16  4  0  0  0  0
 16 17  4  0  0  0  0
 17 18  4  0  0  0  0
 18 19  4  0  0  0  0
 19 13  4  0  0  0  0
  6 20  2  0  0  0  0
  1 21  4  0  0  0  0
 21 22  4  0  0  0  0
 22 23  4  0  0  0  0
 23  2  4  0  0  0  0
 22 24  1  0  0  0  0
 24 25  1  0  0  0  0
 24 26  1  0  0  0  0
 24 27  1  0  0  0  0
 16 28  4  0  0  0  0
 28 29  4  0  0  0  0
 29 30  4  0  0  0  0
 30 31  4  0  0  0  0
 31 17  4  0  0  0  0
 28 32  1  0  0  0  0
 18 33  1  0  0  0  0
 33 34  1  0  0  0  0
M  END
> <From>
www.bindingDB.org

> <BindingDB Reactant_set_id>
1397228

> <Ligand InChI>
InChI=1S/C27H31N3O3S/c1-16-19-12-17(13-21(33-5)18(19)6-9-28-16)24(32)30-10-7-27(8-11-30)14-20(31)23-22(15-27)34-25(29-23)26(2,3)4/h6,9,12-13H,7-8,10-11,14-15H2,1-5H3

> <Ligand InChI Key>
IINHKOMZZQQDQC-UHFFFAOYSA-N

> <BindingDB MonomerID>
663846

> <BindingDB Ligand Name>
US20240109915, Example 28

> <Target Name>
Activating signal cointegrator 1 complex subunit 1

> <Target Source Organism According to Curator or DataSource>


> <Ki (nM)>


> <IC50 (nM)>
 6.20

> <Kd (nM)>


> <EC50 (nM)>


> <kon (M-1-s-1)>


> <koff (s-1)>


> <pH>


> <Temp C>


> <Curation/DataSource>
US Patent

> <Article DOI>


> <BindingDB Entry DOI>
10.7270/Q2348QQ2

> <PMID>


> <PubChem AID>


> <Patent Number>
US20240109915

> <Authors>
Bagley, SW; Bootsma, AN; Choi, C; Dow, RL; Edmonds, DJ; Garcia-Irizarry, CN; Gerstenberger, BS; Ingle, G; O''Brien, JG; Parikh, MD; Rescourio, GC; Schmitt, DC

> <Institution>
Pfizer

> <Link to Ligand in BindingDB>
http://www.bindingdb.org/bind/chemsearch/marvin/MolStructure.jsp?monomerid=663846

> <Link to Ligand-Target Pair in BindingDB>
http://www.bindingdb.org/jsp/dbsearch/PrimarySearch_ki.jsp?energyterm=kJ/mole&tag=pol&polymerid=735&target=Activating+signal+cointegrator+1+complex+subunit+1&column=ki&startPg=0&Increment=50&submit=Search

> <Link to Ligand-Target Pair in BindingDB>
http://www.bindingdb.org/jsp/dbsearch/PrimarySearch_ki.jsp?energyterm=kJ/mole&tag=r21&monomerid=663846&enzyme=Activating+signal+cointegrator+1+complex+subunit+1&column=ki&startPg=0&Increment=50&submit=Search

> <Ligand HET ID in PDB>


> <PDB ID(s) for Ligand-Target Complex>


> <PubChem CID>


> <PubChem SID>


> <ChEBI ID of Ligand>


> <ChEMBL ID of Ligand>


> <DrugBank ID of Ligand>


> <IUPHAR_GRAC ID of Ligand>


> <KEGG ID of Ligand>


> <ZINC ID of Ligand>


> <Number of Protein Chains in Target (bigger than 1 implies a multichain complex)>
1

> <BindingDB Target Chain Sequence>
MEVLRPQLIRIDGRNYRKNPVQEQTYQHEEDEEDFYQGSMECADEPCDAYEVEQTPQGFRSTLRAPSLLYNLIHLNTSNDCGFQKITLDCQNIYTWKSRHIVGKRGDTRKKIEMETKTSISIPKPGQDGEIVITGQHRNGVISARTRIDVLLDTFRRKQPFTHFLAFFLNEVEVQEGFLRFQEEVLAKCSMDHGVDSSIFQNPKKLHLTIGMLVLLSEEEIQQTCEMLQQCKEEFINDISGGKPLEVEMAGIEYMNDDPGMVDVLYAKVHMKDGSNRLQELVDRVLERFQASGLIVKEWNSVKLHATVMNTLFRKDPNAEGRYNLYTAEGKYIFKERESFDGRNILKSFALLPRLEYNDAISAHCNLCLPGSSDSPASASQVAGITGVSDAYSQSLPGKS

> <PDB ID(s) of Target Chain>


> <UniProt (SwissProt) Recommended Name of Target Chain>
Activating signal cointegrator 1 complex subunit 1

> <UniProt (SwissProt) Entry Name of Target Chain>
ASCC1_HUMAN

> <UniProt (SwissProt) Primary ID of Target Chain>
Q8N9N2

> <UniProt (SwissProt) Secondary ID(s) of Target Chain>
Q5SW06 Q5SW07 Q96EI8 Q9Y307

> <UniProt (SwissProt) Alternative ID(s) of Target Chain>


> <UniProt (TrEMBL) Submitted Name of Target Chain>


> <UniProt (TrEMBL) Entry Name of Target Chain>


> <UniProt (TrEMBL) Primary ID of Target Chain>


> <UniProt (TrEMBL) Secondary ID(s) of Target Chain>


> <UniProt (TrEMBL) Alternative ID(s) of Target Chain>


$$$$
00324001.cdx
  Mrv0541 06272400352D          

 31 35  0  0  0  0            999 V2000
   -4.6749    0.4125    0.0000 C   0  0  0  0  0  0  0  0  0  0  0  0
   -3.8499    0.4125    0.0000 C   0  0  0  0  0  0  0  0  0  0  0  0
   -4.2624    1.1270    0.0000 C   0  0  0  0  0  0  0  0  0  0  0  0
   -4.2624   -0.3020    0.0000 C   0  0  0  0  0  0  0  0  0  0  0  0
   -3.0249    0.4125    0.0000 C   0  0  0  0  0  0  0  0  0  0  0  0
   -2.5400    1.0799    0.0000 N   0  0  0  0  0  0  0  0  0  0  0  0
   -2.5400   -0.2549    0.0000 S   0  0  0  0  0  0  0  0  0  0  0  0
   -0.3264    0.0000    0.0000 C   0  0  0  0  0  0  0  0  0  0  0  0
   -0.3264   -0.8250    0.0000 C   0  0  0  0  0  0  0  0  0  0  0  0
    0.3881   -1.2375    0.0000 C   0  0  0  0  0  0  0  0  0  0  0  0
   -1.0409   -0.4125    0.0000 C   0  0  0  0  0  0  0  0  0  0  0  0
   -1.7553    0.0000    0.0000 C   0  0  0  0  0  0  0  0  0  0  0  0
   -1.7553    0.8250    0.0000 C   0  0  0  0  0  0  0  0  0  0  0  0
   -1.0409    1.2375    0.0000 C   0  0  0  0  0  0  0  0  0  0  0  0
   -1.0409    2.0625    0.0000 O   0  0  0  0  0  0  0  0  0  0  0  0
   -0.3264    0.8250    0.0000 C   0  0  0  0  0  0  0  0  0  0  0  0
    0.3881    0.4125    0.0000 C   0  0  0  0  0  0  0  0  0  0  0  0
    1.1025    0.0000    0.0000 C   0  0  0  0  0  0  0  0  0  0  0  0
    1.1025   -0.8250    0.0000 N   0  0  0  0  0  0  0  0  0  0  0  0
    1.8170   -1.2375    0.0000 C   0  0  0  0  0  0  0  0  0  0  0  0
    1.8170   -2.0625    0.0000 O   0  0  0  0  0  0  0  0  0  0  0  0
    2.5315   -0.8250    0.0000 C   0  0  0  0  0  0  0  0  0  0  0  0
    2.5315    0.0000    0.0000 C   0  0  0  0  0  0  0  0  0  0  0  0
    1.9184    0.5520    0.0000 N   0  0  0  0  0  0  0  0  0  0  0  0
    3.2459    0.4125    0.0000 C   0  0  0  0  0  0  0  0  0  0  0  0
    3.0744    1.2195    0.0000 C   0  0  0  0  0  0  0  0  0  0  0  0
    2.2539    1.3057    0.0000 C   0  0  0  0  0  0  0  0  0  0  0  0
    3.9604    0.0000    0.0000 C   0  0  0  0  0  0  0  0  0  0  0  0
    4.6749    0.4125    0.0000 Cl  0  0  0  0  0  0  0  0  0  0  0  0
    3.9604   -0.8250    0.0000 C   0  0  0  0  0  0  0  0  0  0  0  0
    3.2459   -1.2375    0.0000 C   0  0  0  0  0  0  0  0  0  0  0  0
  1  2  1  0  0  0  0
  2  3  1  0  0  0  0
  2  4  1  0  0  0  0
  2  5  1  0  0  0  0
  5  6  4  0  0  0  0
  5  7  4  0  0  0  0
  6 13  4  0  0  0  0
  7 12  4  0  0  0  0
  8  9  1  0  0  0  0
  8 11  1  0  0  0  0
  8 16  1  0  0  0  0
  8 17  1  0  0  0  0
  9 10  1  0  0  0  0
 10 19  1  0  0  0  0
 11 12  1  0  0  0  0
 12 13  4  0  0  0  0
 13 14  1  0  0  0  0
 14 15  2  0  0  0  0
 14 16  1  0  0  0  0
 17 18  1  0  0  0  0
 18 19  1  0  0  0  0
 19 20  1  0  0  0  0
 20 21  2  0  0  0  0
 20 22  1  0  0  0  0
 22 23  4  0  0  0  0
 22 31  4  0  0  0  0
 23 24  4  0  0  0  0
 23 25  4  0  0  0  0
 24 27  4  0  0  0  0
 25 26  4  0  0  0  0
 25 28  4  0  0  0  0
 26 27  4  0  0  0  0
 28 29  1  0  0  0  0
 28 30  4  0  0  0  0
 30 31  4  0  0  0  0
M  STY  1   1 DAT
M  SAL   1  1  24
M  SDT   1 MRV_IMPLICIT_H                                        
M  SDD   1     0.0000    0.0000    DR    ALL  0       0  
M  SED   1 IMPL_H1
M  END
> <From>
www.bindingDB.org

> <BindingDB Reactant_set_id>
1397286

> <Ligand InChI>
InChI=1S/C24H26ClN3O2S/c1-23(2,3)22-27-20-17(29)12-24(13-18(20)31-22)7-10-28(11-8-24)21(30)15-4-5-16(25)14-6-9-26-19(14)15/h4-6,9,26H,7-8,10-13H2,1-3H3

> <Ligand InChI Key>
LJCWAAQMVYLGQN-UHFFFAOYSA-N

> <BindingDB MonomerID>
663904

> <BindingDB Ligand Name>
US20240109915, Example 89

> <Target Name>
Activating signal cointegrator 1 complex subunit 1

> <Target Source Organism According to Curator or DataSource>


> <Ki (nM)>


> <IC50 (nM)>
 6.30

> <Kd (nM)>


> <EC50 (nM)>


> <kon (M-1-s-1)>


> <koff (s-1)>


> <pH>


> <Temp C>


> <Curation/DataSource>
US Patent

> <Article DOI>


> <BindingDB Entry DOI>
10.7270/Q2348QQ2

> <PMID>


> <PubChem AID>


> <Patent Number>
US20240109915

> <Authors>
Bagley, SW; Bootsma, AN; Choi, C; Dow, RL; Edmonds, DJ; Garcia-Irizarry, CN; Gerstenberger, BS; Ingle, G; O''Brien, JG; Parikh, MD; Rescourio, GC; Schmitt, DC

> <Institution>
Pfizer

> <Link to Ligand in BindingDB>
http://www.bindingdb.org/bind/chemsearch/marvin/MolStructure.jsp?monomerid=663904

> <Link to Ligand-Target Pair in BindingDB>
http://www.bindingdb.org/jsp/dbsearch/PrimarySearch_ki.jsp?energyterm=kJ/mole&tag=pol&polymerid=735&target=Activating+signal+cointegrator+1+complex+subunit+1&column=ki&startPg=0&Increment=50&submit=Search

> <Link to Ligand-Target Pair in BindingDB>
http://www.bindingdb.org/jsp/dbsearch/PrimarySearch_ki.jsp?energyterm=kJ/mole&tag=r21&monomerid=663904&enzyme=Activating+signal+cointegrator+1+complex+subunit+1&column=ki&startPg=0&Increment=50&submit=Search

> <Ligand HET ID in PDB>


> <PDB ID(s) for Ligand-Target Complex>


> <PubChem CID>


> <PubChem SID>


> <ChEBI ID of Ligand>


> <ChEMBL ID of Ligand>


> <DrugBank ID of Ligand>


> <IUPHAR_GRAC ID of Ligand>


> <KEGG ID of Ligand>


> <ZINC ID of Ligand>


> <Number of Protein Chains in Target (bigger than 1 implies a multichain complex)>
1

> <BindingDB Target Chain Sequence>
MEVLRPQLIRIDGRNYRKNPVQEQTYQHEEDEEDFYQGSMECADEPCDAYEVEQTPQGFRSTLRAPSLLYNLIHLNTSNDCGFQKITLDCQNIYTWKSRHIVGKRGDTRKKIEMETKTSISIPKPGQDGEIVITGQHRNGVISARTRIDVLLDTFRRKQPFTHFLAFFLNEVEVQEGFLRFQEEVLAKCSMDHGVDSSIFQNPKKLHLTIGMLVLLSEEEIQQTCEMLQQCKEEFINDISGGKPLEVEMAGIEYMNDDPGMVDVLYAKVHMKDGSNRLQELVDRVLERFQASGLIVKEWNSVKLHATVMNTLFRKDPNAEGRYNLYTAEGKYIFKERESFDGRNILKSFALLPRLEYNDAISAHCNLCLPGSSDSPASASQVAGITGVSDAYSQSLPGKS

> <PDB ID(s) of Target Chain>


> <UniProt (SwissProt) Recommended Name of Target Chain>
Activating signal cointegrator 1 complex subunit 1

> <UniProt (SwissProt) Entry Name of Target Chain>
ASCC1_HUMAN

> <UniProt (SwissProt) Primary ID of Target Chain>
Q8N9N2

> <UniProt (SwissProt) Secondary ID(s) of Target Chain>
Q5SW06 Q5SW07 Q96EI8 Q9Y307

> <UniProt (SwissProt) Alternative ID(s) of Target Chain>


> <UniProt (TrEMBL) Submitted Name of Target Chain>


> <UniProt (TrEMBL) Entry Name of Target Chain>


> <UniProt (TrEMBL) Primary ID of Target Chain>


> <UniProt (TrEMBL) Secondary ID(s) of Target Chain>


> <UniProt (TrEMBL) Alternative ID(s) of Target Chain>


$$$$
00284001.cdx
  Mrv0541 06272400352D          

 33 37  0  0  0  0            999 V2000
   -4.9524    0.4125    0.0000 C   0  0  0  0  0  0  0  0  0  0  0  0
   -4.1274    0.4125    0.0000 C   0  0  0  0  0  0  0  0  0  0  0  0
   -4.5399   -0.3020    0.0000 C   0  0  0  0  0  0  0  0  0  0  0  0
   -4.5399    1.1270    0.0000 C   0  0  0  0  0  0  0  0  0  0  0  0
   -3.3024    0.4125    0.0000 C   0  0  0  0  0  0  0  0  0  0  0  0
   -2.8175    1.0799    0.0000 N   0  0  0  0  0  0  0  0  0  0  0  0
   -2.8175   -0.2549    0.0000 S   0  0  0  0  0  0  0  0  0  0  0  0
   -1.3184   -0.4125    0.0000 C   0  0  0  0  0  0  0  0  0  0  0  0
   -0.6039    0.0000    0.0000 C   0  0  0  0  0  0  0  0  0  0  0  0
   -0.6039   -0.8250    0.0000 C   0  0  0  0  0  0  0  0  0  0  0  0
   -2.0329    0.0000    0.0000 C   0  0  0  0  0  0  0  0  0  0  0  0
   -2.0329    0.8250    0.0000 C   0  0  0  0  0  0  0  0  0  0  0  0
   -1.3184    1.2375    0.0000 C   0  0  0  0  0  0  0  0  0  0  0  0
   -1.3184    2.0625    0.0000 O   0  0  0  0  0  0  0  0  0  0  0  0
   -0.6039    0.8250    0.0000 C   0  0  0  0  0  0  0  0  0  0  0  0
    0.1105    0.4125    0.0000 C   0  0  0  0  0  0  0  0  0  0  0  0
    0.8250    0.0000    0.0000 C   0  0  0  0  0  0  0  0  0  0  0  0
    0.8250   -0.8250    0.0000 N   0  0  0  0  0  0  0  0  0  0  0  0
    0.1105   -1.2375    0.0000 C   0  0  0  0  0  0  0  0  0  0  0  0
    2.2539    1.6500    0.0000 C   0  0  0  0  0  0  0  0  0  0  0  0
    2.9684    1.2375    0.0000 O   0  0  0  0  0  0  0  0  0  0  0  0
    4.4675    0.2549    0.0000 N   0  0  0  0  0  0  0  0  0  0  0  0
    4.9524   -0.4125    0.0000 N   0  0  0  0  0  0  0  0  0  0  0  0
    2.9684   -1.2375    0.0000 C   0  0  0  0  0  0  0  0  0  0  0  0
    3.6829   -0.8250    0.0000 C   0  0  0  0  0  0  0  0  0  0  0  0
    4.4675   -1.0799    0.0000 C   0  0  0  0  0  0  0  0  0  0  0  0
    2.2539   -0.8250    0.0000 C   0  0  0  0  0  0  0  0  0  0  0  0
    1.5395   -1.2375    0.0000 C   0  0  0  0  0  0  0  0  0  0  0  0
    1.5395   -2.0625    0.0000 O   0  0  0  0  0  0  0  0  0  0  0  0
    2.2539    0.0000    0.0000 C   0  0  0  0  0  0  0  0  0  0  0  0
    2.9684    0.4125    0.0000 C   0  0  0  0  0  0  0  0  0  0  0  0
    3.6829    0.0000    0.0000 C   0  0  0  0  0  0  0  0  0  0  0  0
    4.7224   -1.8646    0.0000 C   0  0  0  0  0  0  0  0  0  0  0  0
  1  2  1  0  0  0  0
  2  3  1  0  0  0  0
  2  4  1  0  0  0  0
  2  5  1  0  0  0  0
  5  6  4  0  0  0  0
  5  7  4  0  0  0  0
  6 12  4  0  0  0  0
  7 11  4  0  0  0  0
  8  9  1  0  0  0  0
  8 11  1  0  0  0  0
  9 10  1  0  0  0  0
  9 15  1  0  0  0  0
  9 16  1  0  0  0  0
 10 19  1  0  0  0  0
 11 12  4  0  0  0  0
 12 13  1  0  0  0  0
 13 14  2  0  0  0  0
 13 15  1  0  0  0  0
 16 17  1  0  0  0  0
 17 18  1  0  0  0  0
 18 19  1  0  0  0  0
 18 28  1  0  0  0  0
 20 21  1  0  0  0  0
 21 31  1  0  0  0  0
 22 23  4  0  0  0  0
 22 32  4  0  0  0  0
 23 26  4  0  0  0  0
 24 25  4  0  0  0  0
 24 27  4  0  0  0  0
 25 26  4  0  0  0  0
 25 32  4  0  0  0  0
 26 33  1  0  0  0  0
 27 28  1  0  0  0  0
 27 30  4  0  0  0  0
 28 29  2  0  0  0  0
 30 31  4  0  0  0  0
 31 32  4  0  0  0  0
M  STY  1   1 DAT
M  SAL   1  1  22
M  SDT   1 MRV_IMPLICIT_H                                        
M  SDD   1     0.0000    0.0000    DR    ALL  0       0  
M  SED   1 IMPL_H1
M  END
> <From>
www.bindingDB.org

> <BindingDB Reactant_set_id>
1397248

> <Ligand InChI>
InChI=1S/C25H30N4O3S/c1-14-16-10-15(11-18(32-5)20(16)28-27-14)22(31)29-8-6-25(7-9-29)12-17(30)21-19(13-25)33-23(26-21)24(2,3)4/h10-11H,6-9,12-13H2,1-5H3,(H,27,28)

> <Ligand InChI Key>
YWMUTQXZPUQIPA-UHFFFAOYSA-N

> <BindingDB MonomerID>
663866

> <BindingDB Ligand Name>
US20240109915, Example 49

> <Target Name>
Activating signal cointegrator 1 complex subunit 1

> <Target Source Organism According to Curator or DataSource>


> <Ki (nM)>


> <IC50 (nM)>
 6.40

> <Kd (nM)>


> <EC50 (nM)>


> <kon (M-1-s-1)>


> <koff (s-1)>


> <pH>


> <Temp C>


> <Curation/DataSource>
US Patent

> <Article DOI>


> <BindingDB Entry DOI>
10.7270/Q2348QQ2

> <PMID>


> <PubChem AID>


> <Patent Number>
US20240109915

> <Authors>
Bagley, SW; Bootsma, AN; Choi, C; Dow, RL; Edmonds, DJ; Garcia-Irizarry, CN; Gerstenberger, BS; Ingle, G; O''Brien, JG; Parikh, MD; Rescourio, GC; Schmitt, DC

> <Institution>
Pfizer

> <Link to Ligand in BindingDB>
http://www.bindingdb.org/bind/chemsearch/marvin/MolStructure.jsp?monomerid=663866

> <Link to Ligand-Target Pair in BindingDB>
http://www.bindingdb.org/jsp/dbsearch/PrimarySearch_ki.jsp?energyterm=kJ/mole&tag=pol&polymerid=735&target=Activating+signal+cointegrator+1+complex+subunit+1&column=ki&startPg=0&Increment=50&submit=Search

> <Link to Ligand-Target Pair in BindingDB>
http://www.bindingdb.org/jsp/dbsearch/PrimarySearch_ki.jsp?energyterm=kJ/mole&tag=r21&monomerid=663866&enzyme=Activating+signal+cointegrator+1+complex+subunit+1&column=ki&startPg=0&Increment=50&submit=Search

> <Ligand HET ID in PDB>


> <PDB ID(s) for Ligand-Target Complex>


> <PubChem CID>


> <PubChem SID>


> <ChEBI ID of Ligand>


> <ChEMBL ID of Ligand>


> <DrugBank ID of Ligand>


> <IUPHAR_GRAC ID of Ligand>


> <KEGG ID of Ligand>


> <ZINC ID of Ligand>


> <Number of Protein Chains in Target (bigger than 1 implies a multichain complex)>
1

> <BindingDB Target Chain Sequence>
MEVLRPQLIRIDGRNYRKNPVQEQTYQHEEDEEDFYQGSMECADEPCDAYEVEQTPQGFRSTLRAPSLLYNLIHLNTSNDCGFQKITLDCQNIYTWKSRHIVGKRGDTRKKIEMETKTSISIPKPGQDGEIVITGQHRNGVISARTRIDVLLDTFRRKQPFTHFLAFFLNEVEVQEGFLRFQEEVLAKCSMDHGVDSSIFQNPKKLHLTIGMLVLLSEEEIQQTCEMLQQCKEEFINDISGGKPLEVEMAGIEYMNDDPGMVDVLYAKVHMKDGSNRLQELVDRVLERFQASGLIVKEWNSVKLHATVMNTLFRKDPNAEGRYNLYTAEGKYIFKERESFDGRNILKSFALLPRLEYNDAISAHCNLCLPGSSDSPASASQVAGITGVSDAYSQSLPGKS

> <PDB ID(s) of Target Chain>


> <UniProt (SwissProt) Recommended Name of Target Chain>
Activating signal cointegrator 1 complex subunit 1

> <UniProt (SwissProt) Entry Name of Target Chain>
ASCC1_HUMAN

> <UniProt (SwissProt) Primary ID of Target Chain>
Q8N9N2

> <UniProt (SwissProt) Secondary ID(s) of Target Chain>
Q5SW06 Q5SW07 Q96EI8 Q9Y307

> <UniProt (SwissProt) Alternative ID(s) of Target Chain>


> <UniProt (TrEMBL) Submitted Name of Target Chain>


> <UniProt (TrEMBL) Entry Name of Target Chain>


> <UniProt (TrEMBL) Primary ID of Target Chain>


> <UniProt (TrEMBL) Secondary ID(s) of Target Chain>


> <UniProt (TrEMBL) Alternative ID(s) of Target Chain>


$$$$
00274001.cdx
  Mrv0541 06272400352D          

 35 39  0  0  0  0            999 V2000
   -4.4538    0.4125    0.0000 C   0  0  0  0  0  0  0  0  0  0  0  0
   -3.9689    1.0799    0.0000 N   0  0  0  0  0  0  0  0  0  0  0  0
   -5.2788    0.4125    0.0000 C   0  0  0  0  0  0  0  0  0  0  0  0
   -3.9689   -0.2549    0.0000 S   0  0  0  0  0  0  0  0  0  0  0  0
   -5.6913    1.1270    0.0000 C   0  0  0  0  0  0  0  0  0  0  0  0
   -6.1038    0.4125    0.0000 C   0  0  0  0  0  0  0  0  0  0  0  0
   -5.6913   -0.3020    0.0000 C   0  0  0  0  0  0  0  0  0  0  0  0
   -3.1843    0.0000    0.0000 C   0  0  0  0  0  0  0  0  0  0  0  0
   -3.1843    0.8250    0.0000 C   0  0  0  0  0  0  0  0  0  0  0  0
   -2.4698   -0.4125    0.0000 C   0  0  0  0  0  0  0  0  0  0  0  0
   -2.4698    1.2375    0.0000 C   0  0  0  0  0  0  0  0  0  0  0  0
   -2.4698    2.0625    0.0000 O   0  0  0  0  0  0  0  0  0  0  0  0
   -1.7553    0.8250    0.0000 C   0  0  0  0  0  0  0  0  0  0  0  0
   -1.7553    0.0000    0.0000 C   0  0  0  0  0  0  0  0  0  0  0  0
   -1.0409    0.4125    0.0000 C   0  0  0  0  0  0  0  0  0  0  0  0
   -0.3264    0.0000    0.0000 C   0  0  0  0  0  0  0  0  0  0  0  0
   -0.3264   -0.8250    0.0000 N   0  0  0  0  0  0  0  0  0  0  0  0
   -1.7553   -0.8250    0.0000 C   0  0  0  0  0  0  0  0  0  0  0  0
   -1.0409   -1.2375    0.0000 C   0  0  0  0  0  0  0  0  0  0  0  0
    2.5315   -0.8250    0.0000 C   0  0  0  0  0  0  0  0  0  0  0  0
    3.2459   -1.2375    0.0000 N   0  0  0  0  0  0  0  0  0  0  0  0
    2.5315    0.0000    0.0000 C   0  0  0  0  0  0  0  0  0  0  0  0
    1.8170   -1.2375    0.0000 C   0  0  0  0  0  0  0  0  0  0  0  0
    1.1025   -0.8250    0.0000 C   0  0  0  0  0  0  0  0  0  0  0  0
    1.1025    0.0000    0.0000 C   0  0  0  0  0  0  0  0  0  0  0  0
    1.8170    0.4125    0.0000 C   0  0  0  0  0  0  0  0  0  0  0  0
    0.3881   -1.2375    0.0000 C   0  0  0  0  0  0  0  0  0  0  0  0
    1.8170    1.2375    0.0000 C   0  0  0  0  0  0  0  0  0  0  0  0
    0.3881   -2.0625    0.0000 O   0  0  0  0  0  0  0  0  0  0  0  0
    3.2459    0.4125    0.0000 C   0  0  0  0  0  0  0  0  0  0  0  0
    3.9604    0.0000    0.0000 C   0  0  0  0  0  0  0  0  0  0  0  0
    3.9604   -0.8250    0.0000 C   0  0  0  0  0  0  0  0  0  0  0  0
    4.6749   -1.2375    0.0000 N   0  0  0  0  0  0  0  0  0  0  0  0
    5.3894   -0.8250    0.0000 C   0  0  0  0  0  0  0  0  0  0  0  0
    6.1038   -1.2375    0.0000 C   0  0  0  0  0  0  0  0  0  0  0  0
  1  2  4  0  0  0  0
  1  3  1  0  0  0  0
  1  4  4  0  0  0  0
  2  9  4  0  0  0  0
  3  5  1  0  0  0  0
  3  6  1  0  0  0  0
  3  7  1  0  0  0  0
  4  8  4  0  0  0  0
  8  9  4  0  0  0  0
  8 10  1  0  0  0  0
  9 11  1  0  0  0  0
 10 14  1  0  0  0  0
 11 12  2  0  0  0  0
 11 13  1  0  0  0  0
 13 14  1  0  0  0  0
 14 15  1  0  0  0  0
 14 18  1  0  0  0  0
 15 16  1  0  0  0  0
 16 17  1  0  0  0  0
 17 19  1  0  0  0  0
 17 27  1  0  0  0  0
 18 19  1  0  0  0  0
 20 21  4  0  0  0  0
 20 22  4  0  0  0  0
 20 23  4  0  0  0  0
 21 32  4  0  0  0  0
 22 26  4  0  0  0  0
 22 30  4  0  0  0  0
 23 24  4  0  0  0  0
 24 25  4  0  0  0  0
 24 27  1  0  0  0  0
 25 26  4  0  0  0  0
 26 28  1  0  0  0  0
 27 29  2  0  0  0  0
 30 31  4  0  0  0  0
 31 32  4  0  0  0  0
 32 33  1  0  0  0  0
 33 34  1  0  0  0  0
 34 35  1  0  0  0  0
M  END
> <From>
www.bindingDB.org

> <BindingDB Reactant_set_id>
1397239

> <Ligand InChI>
InChI=1S/C28H34N4O2S/c1-6-29-23-8-7-19-17(2)13-18(14-20(19)30-23)25(34)32-11-9-28(10-12-32)15-21(33)24-22(16-28)35-26(31-24)27(3,4)5/h7-8,13-14H,6,9-12,15-16H2,1-5H3,(H,29,30)

> <Ligand InChI Key>
BJXNFYXTWMHVBZ-UHFFFAOYSA-N

> <BindingDB MonomerID>
663857

> <BindingDB Ligand Name>
US20240109915, Example 39

> <Target Name>
Activating signal cointegrator 1 complex subunit 1

> <Target Source Organism According to Curator or DataSource>


> <Ki (nM)>


> <IC50 (nM)>
 6.40

> <Kd (nM)>


> <EC50 (nM)>


> <kon (M-1-s-1)>


> <koff (s-1)>


> <pH>


> <Temp C>


> <Curation/DataSource>
US Patent

> <Article DOI>


> <BindingDB Entry DOI>
10.7270/Q2348QQ2

> <PMID>


> <PubChem AID>


> <Patent Number>
US20240109915

> <Authors>
Bagley, SW; Bootsma, AN; Choi, C; Dow, RL; Edmonds, DJ; Garcia-Irizarry, CN; Gerstenberger, BS; Ingle, G; O''Brien, JG; Parikh, MD; Rescourio, GC; Schmitt, DC

> <Institution>
Pfizer

> <Link to Ligand in BindingDB>
http://www.bindingdb.org/bind/chemsearch/marvin/MolStructure.jsp?monomerid=663857

> <Link to Ligand-Target Pair in BindingDB>
http://www.bindingdb.org/jsp/dbsearch/PrimarySearch_ki.jsp?energyterm=kJ/mole&tag=pol&polymerid=735&target=Activating+signal+cointegrator+1+complex+subunit+1&column=ki&startPg=0&Increment=50&submit=Search

> <Link to Ligand-Target Pair in BindingDB>
http://www.bindingdb.org/jsp/dbsearch/PrimarySearch_ki.jsp?energyterm=kJ/mole&tag=r21&monomerid=663857&enzyme=Activating+signal+cointegrator+1+complex+subunit+1&column=ki&startPg=0&Increment=50&submit=Search

> <Ligand HET ID in PDB>


> <PDB ID(s) for Ligand-Target Complex>


> <PubChem CID>


> <PubChem SID>


> <ChEBI ID of Ligand>


> <ChEMBL ID of Ligand>


> <DrugBank ID of Ligand>


> <IUPHAR_GRAC ID of Ligand>


> <KEGG ID of Ligand>


> <ZINC ID of Ligand>


> <Number of Protein Chains in Target (bigger than 1 implies a multichain complex)>
1

> <BindingDB Target Chain Sequence>
MEVLRPQLIRIDGRNYRKNPVQEQTYQHEEDEEDFYQGSMECADEPCDAYEVEQTPQGFRSTLRAPSLLYNLIHLNTSNDCGFQKITLDCQNIYTWKSRHIVGKRGDTRKKIEMETKTSISIPKPGQDGEIVITGQHRNGVISARTRIDVLLDTFRRKQPFTHFLAFFLNEVEVQEGFLRFQEEVLAKCSMDHGVDSSIFQNPKKLHLTIGMLVLLSEEEIQQTCEMLQQCKEEFINDISGGKPLEVEMAGIEYMNDDPGMVDVLYAKVHMKDGSNRLQELVDRVLERFQASGLIVKEWNSVKLHATVMNTLFRKDPNAEGRYNLYTAEGKYIFKERESFDGRNILKSFALLPRLEYNDAISAHCNLCLPGSSDSPASASQVAGITGVSDAYSQSLPGKS

> <PDB ID(s) of Target Chain>


> <UniProt (SwissProt) Recommended Name of Target Chain>
Activating signal cointegrator 1 complex subunit 1

> <UniProt (SwissProt) Entry Name of Target Chain>
ASCC1_HUMAN

> <UniProt (SwissProt) Primary ID of Target Chain>
Q8N9N2

> <UniProt (SwissProt) Secondary ID(s) of Target Chain>
Q5SW06 Q5SW07 Q96EI8 Q9Y307

> <UniProt (SwissProt) Alternative ID(s) of Target Chain>


> <UniProt (TrEMBL) Submitted Name of Target Chain>


> <UniProt (TrEMBL) Entry Name of Target Chain>


> <UniProt (TrEMBL) Primary ID of Target Chain>


> <UniProt (TrEMBL) Secondary ID(s) of Target Chain>


> <UniProt (TrEMBL) Alternative ID(s) of Target Chain>


$$$$
00260001.cdx
  Mrv0541 06272400352D          

 35 40  0  0  0  0            999 V2000
   -2.1126    1.1822    0.0000 C   0  0  0  0  0  0  0  0  0  0  0  0
   -2.1126    0.3572    0.0000 C   0  0  0  0  0  0  0  0  0  0  0  0
   -1.3981   -0.0553    0.0000 C   0  0  0  0  0  0  0  0  0  0  0  0
   -0.6836    0.3572    0.0000 C   0  0  0  0  0  0  0  0  0  0  0  0
   -0.6836    1.1822    0.0000 C   0  0  0  0  0  0  0  0  0  0  0  0
   -1.3981    1.5947    0.0000 C   0  0  0  0  0  0  0  0  0  0  0  0
   -0.6836   -0.4678    0.0000 C   0  0  0  0  0  0  0  0  0  0  0  0
    0.0308   -0.8803    0.0000 C   0  0  0  0  0  0  0  0  0  0  0  0
    0.7453   -0.4678    0.0000 N   0  0  0  0  0  0  0  0  0  0  0  0
    0.7453    0.3572    0.0000 C   0  0  0  0  0  0  0  0  0  0  0  0
    0.0308    0.7697    0.0000 C   0  0  0  0  0  0  0  0  0  0  0  0
    1.4598   -0.8803    0.0000 C   0  0  0  0  0  0  0  0  0  0  0  0
    2.1742   -0.4678    0.0000 C   0  0  0  0  0  0  0  0  0  0  0  0
    1.4598   -1.7053    0.0000 O   0  0  0  0  0  0  0  0  0  0  0  0
    2.8887   -0.8803    0.0000 C   0  0  0  0  0  0  0  0  0  0  0  0
    3.6032   -0.4678    0.0000 C   0  0  0  0  0  0  0  0  0  0  0  0
    3.6032    0.3572    0.0000 C   0  0  0  0  0  0  0  0  0  0  0  0
    2.8887    0.7697    0.0000 C   0  0  0  0  0  0  0  0  0  0  0  0
    2.1742    0.3572    0.0000 C   0  0  0  0  0  0  0  0  0  0  0  0
   -1.3981    2.4197    0.0000 O   0  0  0  0  0  0  0  0  0  0  0  0
   -2.8972    1.4372    0.0000 N   0  0  0  0  0  0  0  0  0  0  0  0
   -3.3821    0.7697    0.0000 C   0  0  0  0  0  0  0  0  0  0  0  0
   -2.8972    0.1023    0.0000 S   0  0  0  0  0  0  0  0  0  0  0  0
   -4.2071    0.7697    0.0000 C   0  0  0  0  0  0  0  0  0  0  0  0
   -4.6196    1.4842    0.0000 C   0  0  0  0  0  0  0  0  0  0  0  0
   -4.6196    0.0553    0.0000 C   0  0  0  0  0  0  0  0  0  0  0  0
   -5.0321    0.7697    0.0000 C   0  0  0  0  0  0  0  0  0  0  0  0
    4.3177   -0.8803    0.0000 C   0  0  0  0  0  0  0  0  0  0  0  0
    5.0321   -0.4678    0.0000 N   0  0  0  0  0  0  0  0  0  0  0  0
    5.0321    0.3572    0.0000 C   0  0  0  0  0  0  0  0  0  0  0  0
    4.3177    0.7697    0.0000 C   0  0  0  0  0  0  0  0  0  0  0  0
    2.8887    1.5947    0.0000 C   0  0  0  0  0  0  0  0  0  0  0  0
    4.3177   -1.7053    0.0000 C   0  0  0  0  0  0  0  0  0  0  0  0
    3.9052   -2.4197    0.0000 C   0  0  0  0  0  0  0  0  0  0  0  0
    4.7302   -2.4197    0.0000 C   0  0  0  0  0  0  0  0  0  0  0  0
  1  2  4  0  0  0  0
  2  3  1  0  0  0  0
  3  4  1  0  0  0  0
  4  5  1  0  0  0  0
  5  6  1  0  0  0  0
  6  1  1  0  0  0  0
  4  7  1  0  0  0  0
  7  8  1  0  0  0  0
  8  9  1  0  0  0  0
  9 10  1  0  0  0  0
 10 11  1  0  0  0  0
 11  4  1  0  0  0  0
  9 12  1  0  0  0  0
 12 13  1  0  0  0  0
 12 14  2  0  0  0  0
 13 15  4  0  0  0  0
 15 16  4  0  0  0  0
 16 17  4  0  0  0  0
 17 18  4  0  0  0  0
 18 19  4  0  0  0  0
 19 13  4  0  0  0  0
  6 20  2  0  0  0  0
  1 21  4  0  0  0  0
 21 22  4  0  0  0  0
 22 23  4  0  0  0  0
 23  2  4  0  0  0  0
 22 24  1  0  0  0  0
 24 25  1  0  0  0  0
 24 26  1  0  0  0  0
 24 27  1  0  0  0  0
 16 28  4  0  0  0  0
 28 29  4  0  0  0  0
 29 30  4  0  0  0  0
 30 31  4  0  0  0  0
 31 17  4  0  0  0  0
 18 32  1  0  0  0  0
 28 33  1  0  0  0  0
 33 34  1  0  0  0  0
 34 35  1  0  0  0  0
 35 33  1  0  0  0  0
M  END
> <From>
www.bindingDB.org

> <BindingDB Reactant_set_id>
1397226

> <Ligand InChI>
InChI=1S/C29H33N3O2S/c1-17-13-19(14-21-20(17)7-10-30-24(21)18-5-6-18)26(34)32-11-8-29(9-12-32)15-22(33)25-23(16-29)35-27(31-25)28(2,3)4/h7,10,13-14,18H,5-6,8-9,11-12,15-16H2,1-4H3

> <Ligand InChI Key>
ORQWLIZQGVNNAF-UHFFFAOYSA-N

> <BindingDB MonomerID>
663844

> <BindingDB Ligand Name>
US20240109915, Example 25

> <Target Name>
Activating signal cointegrator 1 complex subunit 1

> <Target Source Organism According to Curator or DataSource>


> <Ki (nM)>


> <IC50 (nM)>
 6.60

> <Kd (nM)>


> <EC50 (nM)>


> <kon (M-1-s-1)>


> <koff (s-1)>


> <pH>


> <Temp C>


> <Curation/DataSource>
US Patent

> <Article DOI>


> <BindingDB Entry DOI>
10.7270/Q2348QQ2

> <PMID>


> <PubChem AID>


> <Patent Number>
US20240109915

> <Authors>
Bagley, SW; Bootsma, AN; Choi, C; Dow, RL; Edmonds, DJ; Garcia-Irizarry, CN; Gerstenberger, BS; Ingle, G; O''Brien, JG; Parikh, MD; Rescourio, GC; Schmitt, DC

> <Institution>
Pfizer

> <Link to Ligand in BindingDB>
http://www.bindingdb.org/bind/chemsearch/marvin/MolStructure.jsp?monomerid=663844

> <Link to Ligand-Target Pair in BindingDB>
http://www.bindingdb.org/jsp/dbsearch/PrimarySearch_ki.jsp?energyterm=kJ/mole&tag=pol&polymerid=735&target=Activating+signal+cointegrator+1+complex+subunit+1&column=ki&startPg=0&Increment=50&submit=Search

> <Link to Ligand-Target Pair in BindingDB>
http://www.bindingdb.org/jsp/dbsearch/PrimarySearch_ki.jsp?energyterm=kJ/mole&tag=r21&monomerid=663844&enzyme=Activating+signal+cointegrator+1+complex+subunit+1&column=ki&startPg=0&Increment=50&submit=Search

> <Ligand HET ID in PDB>


> <PDB ID(s) for Ligand-Target Complex>


> <PubChem CID>


> <PubChem SID>


> <ChEBI ID of Ligand>


> <ChEMBL ID of Ligand>


> <DrugBank ID of Ligand>


> <IUPHAR_GRAC ID of Ligand>


> <KEGG ID of Ligand>


> <ZINC ID of Ligand>


> <Number of Protein Chains in Target (bigger than 1 implies a multichain complex)>
1

> <BindingDB Target Chain Sequence>
MEVLRPQLIRIDGRNYRKNPVQEQTYQHEEDEEDFYQGSMECADEPCDAYEVEQTPQGFRSTLRAPSLLYNLIHLNTSNDCGFQKITLDCQNIYTWKSRHIVGKRGDTRKKIEMETKTSISIPKPGQDGEIVITGQHRNGVISARTRIDVLLDTFRRKQPFTHFLAFFLNEVEVQEGFLRFQEEVLAKCSMDHGVDSSIFQNPKKLHLTIGMLVLLSEEEIQQTCEMLQQCKEEFINDISGGKPLEVEMAGIEYMNDDPGMVDVLYAKVHMKDGSNRLQELVDRVLERFQASGLIVKEWNSVKLHATVMNTLFRKDPNAEGRYNLYTAEGKYIFKERESFDGRNILKSFALLPRLEYNDAISAHCNLCLPGSSDSPASASQVAGITGVSDAYSQSLPGKS

> <PDB ID(s) of Target Chain>


> <UniProt (SwissProt) Recommended Name of Target Chain>
Activating signal cointegrator 1 complex subunit 1

> <UniProt (SwissProt) Entry Name of Target Chain>
ASCC1_HUMAN

> <UniProt (SwissProt) Primary ID of Target Chain>
Q8N9N2

> <UniProt (SwissProt) Secondary ID(s) of Target Chain>
Q5SW06 Q5SW07 Q96EI8 Q9Y307

> <UniProt (SwissProt) Alternative ID(s) of Target Chain>


> <UniProt (TrEMBL) Submitted Name of Target Chain>


> <UniProt (TrEMBL) Entry Name of Target Chain>


> <UniProt (TrEMBL) Primary ID of Target Chain>


> <UniProt (TrEMBL) Secondary ID(s) of Target Chain>


> <UniProt (TrEMBL) Alternative ID(s) of Target Chain>


$$$$
00339001.cdx
  Mrv0541 06272400352D          

 36 41  0  0  0  0            999 V2000
   -4.1519    0.4125    0.0000 C   0  0  0  0  0  0  0  0  0  0  0  0
   -3.6669    1.0799    0.0000 N   0  0  0  0  0  0  0  0  0  0  0  0
   -4.9769    0.4125    0.0000 C   0  0  0  0  0  0  0  0  0  0  0  0
   -3.6669   -0.2549    0.0000 S   0  0  0  0  0  0  0  0  0  0  0  0
   -5.8019    0.4125    0.0000 C   0  0  0  0  0  0  0  0  0  0  0  0
   -5.3894    1.1270    0.0000 C   0  0  0  0  0  0  0  0  0  0  0  0
   -5.3894   -0.3020    0.0000 C   0  0  0  0  0  0  0  0  0  0  0  0
   -2.1678   -0.4125    0.0000 C   0  0  0  0  0  0  0  0  0  0  0  0
   -1.4534    0.0000    0.0000 C   0  0  0  0  0  0  0  0  0  0  0  0
   -1.4534   -0.8250    0.0000 C   0  0  0  0  0  0  0  0  0  0  0  0
   -2.8823    0.0000    0.0000 C   0  0  0  0  0  0  0  0  0  0  0  0
   -2.8823    0.8250    0.0000 C   0  0  0  0  0  0  0  0  0  0  0  0
   -2.1678    1.2375    0.0000 C   0  0  0  0  0  0  0  0  0  0  0  0
   -2.1678    2.0625    0.0000 O   0  0  0  0  0  0  0  0  0  0  0  0
   -1.4534    0.8250    0.0000 C   0  0  0  0  0  0  0  0  0  0  0  0
   -0.7389    0.4125    0.0000 C   0  0  0  0  0  0  0  0  0  0  0  0
   -0.0244    0.0000    0.0000 C   0  0  0  0  0  0  0  0  0  0  0  0
   -0.0244   -0.8250    0.0000 N   0  0  0  0  0  0  0  0  0  0  0  0
   -0.7389   -1.2375    0.0000 C   0  0  0  0  0  0  0  0  0  0  0  0
    2.1190    1.2375    0.0000 O   0  0  0  0  0  0  0  0  0  0  0  0
    1.4045    1.6500    0.0000 C   0  0  0  0  0  0  0  0  0  0  0  0
    3.5479   -1.2375    0.0000 C   0  0  0  0  0  0  0  0  0  0  0  0
    4.2624   -0.8250    0.0000 C   0  0  0  0  0  0  0  0  0  0  0  0
    4.9769   -1.2375    0.0000 C   0  0  0  0  0  0  0  0  0  0  0  0
    2.8334   -0.8250    0.0000 C   0  0  0  0  0  0  0  0  0  0  0  0
    2.1190   -1.2375    0.0000 C   0  0  0  0  0  0  0  0  0  0  0  0
    1.4045   -0.8250    0.0000 C   0  0  0  0  0  0  0  0  0  0  0  0
    0.6900   -1.2375    0.0000 C   0  0  0  0  0  0  0  0  0  0  0  0
    0.6900   -2.0625    0.0000 O   0  0  0  0  0  0  0  0  0  0  0  0
    1.4045    0.0000    0.0000 C   0  0  0  0  0  0  0  0  0  0  0  0
    2.1190    0.4125    0.0000 C   0  0  0  0  0  0  0  0  0  0  0  0
    2.8334    0.0000    0.0000 C   0  0  0  0  0  0  0  0  0  0  0  0
    3.5479    0.4125    0.0000 N   0  0  0  0  0  0  0  0  0  0  0  0
    4.2624    0.0000    0.0000 C   0  0  0  0  0  0  0  0  0  0  0  0
    5.8019   -1.2375    0.0000 C   0  0  0  0  0  0  0  0  0  0  0  0
    5.3894   -1.9520    0.0000 C   0  0  0  0  0  0  0  0  0  0  0  0
  1  2  4  0  0  0  0
  1  3  1  0  0  0  0
  1  4  4  0  0  0  0
  2 12  4  0  0  0  0
  3  5  1  0  0  0  0
  3  6  1  0  0  0  0
  3  7  1  0  0  0  0
  4 11  4  0  0  0  0
  8  9  1  0  0  0  0
  8 11  1  0  0  0  0
  9 10  1  0  0  0  0
  9 15  1  0  0  0  0
  9 16  1  0  0  0  0
 10 19  1  0  0  0  0
 11 12  4  0  0  0  0
 12 13  1  0  0  0  0
 13 14  2  0  0  0  0
 13 15  1  0  0  0  0
 16 17  1  0  0  0  0
 17 18  1  0  0  0  0
 18 19  1  0  0  0  0
 18 28  1  0  0  0  0
 20 21  1  0  0  0  0
 20 31  1  0  0  0  0
 22 23  4  0  0  0  0
 22 25  4  0  0  0  0
 23 24  1  0  0  0  0
 23 34  4  0  0  0  0
 24 35  1  0  0  0  0
 24 36  1  0  0  0  0
 25 26  4  0  0  0  0
 25 32  4  0  0  0  0
 26 27  4  0  0  0  0
 27 28  1  0  0  0  0
 27 30  4  0  0  0  0
 28 29  2  0  0  0  0
 30 31  4  0  0  0  0
 31 32  4  0  0  0  0
 32 33  4  0  0  0  0
 33 34  4  0  0  0  0
 35 36  1  0  0  0  0
M  END
> <From>
www.bindingDB.org

> <BindingDB Reactant_set_id>
1397301

> <Ligand InChI>
InChI=1S/C29H33N3O3S/c1-28(2,3)27-31-25-21(33)14-29(15-23(25)36-27)7-9-32(10-8-29)26(34)19-11-18-12-20(17-5-6-17)16-30-24(18)22(13-19)35-4/h11-13,16-17H,5-10,14-15H2,1-4H3

> <Ligand InChI Key>
LESBSRCPFWJPDB-UHFFFAOYSA-N

> <BindingDB MonomerID>
663919

> <BindingDB Ligand Name>
US20240109915, Example 104

> <Target Name>
Activating signal cointegrator 1 complex subunit 1

> <Target Source Organism According to Curator or DataSource>


> <Ki (nM)>


> <IC50 (nM)>
 6.70

> <Kd (nM)>


> <EC50 (nM)>


> <kon (M-1-s-1)>


> <koff (s-1)>


> <pH>


> <Temp C>


> <Curation/DataSource>
US Patent

> <Article DOI>


> <BindingDB Entry DOI>
10.7270/Q2348QQ2

> <PMID>


> <PubChem AID>


> <Patent Number>
US20240109915

> <Authors>
Bagley, SW; Bootsma, AN; Choi, C; Dow, RL; Edmonds, DJ; Garcia-Irizarry, CN; Gerstenberger, BS; Ingle, G; O''Brien, JG; Parikh, MD; Rescourio, GC; Schmitt, DC

> <Institution>
Pfizer

> <Link to Ligand in BindingDB>
http://www.bindingdb.org/bind/chemsearch/marvin/MolStructure.jsp?monomerid=663919

> <Link to Ligand-Target Pair in BindingDB>
http://www.bindingdb.org/jsp/dbsearch/PrimarySearch_ki.jsp?energyterm=kJ/mole&tag=pol&polymerid=735&target=Activating+signal+cointegrator+1+complex+subunit+1&column=ki&startPg=0&Increment=50&submit=Search

> <Link to Ligand-Target Pair in BindingDB>
http://www.bindingdb.org/jsp/dbsearch/PrimarySearch_ki.jsp?energyterm=kJ/mole&tag=r21&monomerid=663919&enzyme=Activating+signal+cointegrator+1+complex+subunit+1&column=ki&startPg=0&Increment=50&submit=Search

> <Ligand HET ID in PDB>


> <PDB ID(s) for Ligand-Target Complex>


> <PubChem CID>


> <PubChem SID>


> <ChEBI ID of Ligand>


> <ChEMBL ID of Ligand>


> <DrugBank ID of Ligand>


> <IUPHAR_GRAC ID of Ligand>


> <KEGG ID of Ligand>


> <ZINC ID of Ligand>


> <Number of Protein Chains in Target (bigger than 1 implies a multichain complex)>
1

> <BindingDB Target Chain Sequence>
MEVLRPQLIRIDGRNYRKNPVQEQTYQHEEDEEDFYQGSMECADEPCDAYEVEQTPQGFRSTLRAPSLLYNLIHLNTSNDCGFQKITLDCQNIYTWKSRHIVGKRGDTRKKIEMETKTSISIPKPGQDGEIVITGQHRNGVISARTRIDVLLDTFRRKQPFTHFLAFFLNEVEVQEGFLRFQEEVLAKCSMDHGVDSSIFQNPKKLHLTIGMLVLLSEEEIQQTCEMLQQCKEEFINDISGGKPLEVEMAGIEYMNDDPGMVDVLYAKVHMKDGSNRLQELVDRVLERFQASGLIVKEWNSVKLHATVMNTLFRKDPNAEGRYNLYTAEGKYIFKERESFDGRNILKSFALLPRLEYNDAISAHCNLCLPGSSDSPASASQVAGITGVSDAYSQSLPGKS

> <PDB ID(s) of Target Chain>


> <UniProt (SwissProt) Recommended Name of Target Chain>
Activating signal cointegrator 1 complex subunit 1

> <UniProt (SwissProt) Entry Name of Target Chain>
ASCC1_HUMAN

> <UniProt (SwissProt) Primary ID of Target Chain>
Q8N9N2

> <UniProt (SwissProt) Secondary ID(s) of Target Chain>
Q5SW06 Q5SW07 Q96EI8 Q9Y307

> <UniProt (SwissProt) Alternative ID(s) of Target Chain>


> <UniProt (TrEMBL) Submitted Name of Target Chain>


> <UniProt (TrEMBL) Entry Name of Target Chain>


> <UniProt (TrEMBL) Primary ID of Target Chain>


> <UniProt (TrEMBL) Secondary ID(s) of Target Chain>


> <UniProt (TrEMBL) Alternative ID(s) of Target Chain>


$$$$
00320001.cdx
  Mrv0541 06272400352D          

 33 37  0  0  0  0            999 V2000
   -5.0321    0.4125    0.0000 C   0  0  0  0  0  0  0  0  0  0  0  0
   -4.2071    0.4125    0.0000 C   0  0  0  0  0  0  0  0  0  0  0  0
   -4.6196    1.1270    0.0000 C   0  0  0  0  0  0  0  0  0  0  0  0
   -4.6196   -0.3020    0.0000 C   0  0  0  0  0  0  0  0  0  0  0  0
   -3.3821    0.4125    0.0000 C   0  0  0  0  0  0  0  0  0  0  0  0
   -2.8972    1.0799    0.0000 N   0  0  0  0  0  0  0  0  0  0  0  0
   -2.8972   -0.2549    0.0000 S   0  0  0  0  0  0  0  0  0  0  0  0
   -0.6836    0.0000    0.0000 C   0  0  0  0  0  0  0  0  0  0  0  0
   -0.6836   -0.8250    0.0000 C   0  0  0  0  0  0  0  0  0  0  0  0
    0.0308   -1.2375    0.0000 C   0  0  0  0  0  0  0  0  0  0  0  0
   -1.3981   -0.4125    0.0000 C   0  0  0  0  0  0  0  0  0  0  0  0
   -2.1126    0.0000    0.0000 C   0  0  0  0  0  0  0  0  0  0  0  0
   -2.1126    0.8250    0.0000 C   0  0  0  0  0  0  0  0  0  0  0  0
   -1.3981    1.2375    0.0000 C   0  0  0  0  0  0  0  0  0  0  0  0
   -1.3981    2.0625    0.0000 O   0  0  0  0  0  0  0  0  0  0  0  0
   -0.6836    0.8250    0.0000 C   0  0  0  0  0  0  0  0  0  0  0  0
    0.0308    0.4125    0.0000 C   0  0  0  0  0  0  0  0  0  0  0  0
    0.7453    0.0000    0.0000 C   0  0  0  0  0  0  0  0  0  0  0  0
    0.7453   -0.8250    0.0000 N   0  0  0  0  0  0  0  0  0  0  0  0
    2.8887   -1.2375    0.0000 C   0  0  0  0  0  0  0  0  0  0  0  0
    3.6032   -0.8250    0.0000 C   0  0  0  0  0  0  0  0  0  0  0  0
    3.6032    0.0000    0.0000 C   0  0  0  0  0  0  0  0  0  0  0  0
    4.3177   -1.2375    0.0000 C   0  0  0  0  0  0  0  0  0  0  0  0
    2.1742   -0.8250    0.0000 C   0  0  0  0  0  0  0  0  0  0  0  0
    1.4598   -1.2375    0.0000 C   0  0  0  0  0  0  0  0  0  0  0  0
    1.4598   -2.0625    0.0000 O   0  0  0  0  0  0  0  0  0  0  0  0
    2.1742    0.0000    0.0000 C   0  0  0  0  0  0  0  0  0  0  0  0
    1.4598    0.4125    0.0000 O   0  0  0  0  0  0  0  0  0  0  0  0
    2.8887    0.4125    0.0000 C   0  0  0  0  0  0  0  0  0  0  0  0
    2.8887    1.2375    0.0000 C   0  0  0  0  0  0  0  0  0  0  0  0
    4.3177    0.4125    0.0000 C   0  0  0  0  0  0  0  0  0  0  0  0
    5.0321    0.0000    0.0000 C   0  0  0  0  0  0  0  0  0  0  0  0
    5.0321   -0.8250    0.0000 C   0  0  0  0  0  0  0  0  0  0  0  0
  1  2  1  0  0  0  0
  2  3  1  0  0  0  0
  2  4  1  0  0  0  0
  2  5  1  0  0  0  0
  5  6  4  0  0  0  0
  5  7  4  0  0  0  0
  6 13  4  0  0  0  0
  7 12  4  0  0  0  0
  8  9  1  0  0  0  0
  8 11  1  0  0  0  0
  8 16  1  0  0  0  0
  8 17  1  0  0  0  0
  9 10  1  0  0  0  0
 10 19  1  0  0  0  0
 11 12  1  0  0  0  0
 12 13  4  0  0  0  0
 13 14  1  0  0  0  0
 14 15  2  0  0  0  0
 14 16  1  0  0  0  0
 17 18  1  0  0  0  0
 18 19  1  0  0  0  0
 19 25  1  0  0  0  0
 20 21  4  0  0  0  0
 20 24  4  0  0  0  0
 21 22  4  0  0  0  0
 21 23  4  0  0  0  0
 22 29  4  0  0  0  0
 22 31  4  0  0  0  0
 23 33  4  0  0  0  0
 24 25  1  0  0  0  0
 24 27  4  0  0  0  0
 25 26  2  0  0  0  0
 27 28  1  0  0  0  0
 27 29  4  0  0  0  0
 29 30  1  0  0  0  0
 31 32  4  0  0  0  0
 32 33  4  0  0  0  0
M  END
> <From>
www.bindingDB.org

> <BindingDB Reactant_set_id>
1397282

> <Ligand InChI>
InChI=1S/C27H30N2O3S/c1-16-18-8-6-5-7-17(18)13-19(23(16)31)24(32)29-11-9-27(10-12-29)14-20(30)22-21(15-27)33-25(28-22)26(2,3)4/h5-8,13,31H,9-12,14-15H2,1-4H3

> <Ligand InChI Key>
NFLAXVBWSCRKRS-UHFFFAOYSA-N

> <BindingDB MonomerID>
663900

> <BindingDB Ligand Name>
US20240109915, Example 85

> <Target Name>
Activating signal cointegrator 1 complex subunit 1

> <Target Source Organism According to Curator or DataSource>


> <Ki (nM)>


> <IC50 (nM)>
 7.00

> <Kd (nM)>


> <EC50 (nM)>


> <kon (M-1-s-1)>


> <koff (s-1)>


> <pH>


> <Temp C>


> <Curation/DataSource>
US Patent

> <Article DOI>


> <BindingDB Entry DOI>
10.7270/Q2348QQ2

> <PMID>


> <PubChem AID>


> <Patent Number>
US20240109915

> <Authors>
Bagley, SW; Bootsma, AN; Choi, C; Dow, RL; Edmonds, DJ; Garcia-Irizarry, CN; Gerstenberger, BS; Ingle, G; O''Brien, JG; Parikh, MD; Rescourio, GC; Schmitt, DC

> <Institution>
Pfizer

> <Link to Ligand in BindingDB>
http://www.bindingdb.org/bind/chemsearch/marvin/MolStructure.jsp?monomerid=663900

> <Link to Ligand-Target Pair in BindingDB>
http://www.bindingdb.org/jsp/dbsearch/PrimarySearch_ki.jsp?energyterm=kJ/mole&tag=pol&polymerid=735&target=Activating+signal+cointegrator+1+complex+subunit+1&column=ki&startPg=0&Increment=50&submit=Search

> <Link to Ligand-Target Pair in BindingDB>
http://www.bindingdb.org/jsp/dbsearch/PrimarySearch_ki.jsp?energyterm=kJ/mole&tag=r21&monomerid=663900&enzyme=Activating+signal+cointegrator+1+complex+subunit+1&column=ki&startPg=0&Increment=50&submit=Search

> <Ligand HET ID in PDB>


> <PDB ID(s) for Ligand-Target Complex>


> <PubChem CID>


> <PubChem SID>


> <ChEBI ID of Ligand>


> <ChEMBL ID of Ligand>


> <DrugBank ID of Ligand>


> <IUPHAR_GRAC ID of Ligand>


> <KEGG ID of Ligand>


> <ZINC ID of Ligand>


> <Number of Protein Chains in Target (bigger than 1 implies a multichain complex)>
1

> <BindingDB Target Chain Sequence>
MEVLRPQLIRIDGRNYRKNPVQEQTYQHEEDEEDFYQGSMECADEPCDAYEVEQTPQGFRSTLRAPSLLYNLIHLNTSNDCGFQKITLDCQNIYTWKSRHIVGKRGDTRKKIEMETKTSISIPKPGQDGEIVITGQHRNGVISARTRIDVLLDTFRRKQPFTHFLAFFLNEVEVQEGFLRFQEEVLAKCSMDHGVDSSIFQNPKKLHLTIGMLVLLSEEEIQQTCEMLQQCKEEFINDISGGKPLEVEMAGIEYMNDDPGMVDVLYAKVHMKDGSNRLQELVDRVLERFQASGLIVKEWNSVKLHATVMNTLFRKDPNAEGRYNLYTAEGKYIFKERESFDGRNILKSFALLPRLEYNDAISAHCNLCLPGSSDSPASASQVAGITGVSDAYSQSLPGKS

> <PDB ID(s) of Target Chain>


> <UniProt (SwissProt) Recommended Name of Target Chain>
Activating signal cointegrator 1 complex subunit 1

> <UniProt (SwissProt) Entry Name of Target Chain>
ASCC1_HUMAN

> <UniProt (SwissProt) Primary ID of Target Chain>
Q8N9N2

> <UniProt (SwissProt) Secondary ID(s) of Target Chain>
Q5SW06 Q5SW07 Q96EI8 Q9Y307

> <UniProt (SwissProt) Alternative ID(s) of Target Chain>


> <UniProt (TrEMBL) Submitted Name of Target Chain>


> <UniProt (TrEMBL) Entry Name of Target Chain>


> <UniProt (TrEMBL) Primary ID of Target Chain>


> <UniProt (TrEMBL) Secondary ID(s) of Target Chain>


> <UniProt (TrEMBL) Alternative ID(s) of Target Chain>


$$$$
00293001.cdx
  Mrv0541 06272400352D          

 33 37  0  0  0  0            999 V2000
   -5.7466    0.4125    0.0000 C   0  0  0  0  0  0  0  0  0  0  0  0
   -4.9216    0.4125    0.0000 C   0  0  0  0  0  0  0  0  0  0  0  0
   -5.3341   -0.3020    0.0000 C   0  0  0  0  0  0  0  0  0  0  0  0
   -5.3341    1.1270    0.0000 C   0  0  0  0  0  0  0  0  0  0  0  0
   -4.0966    0.4125    0.0000 C   0  0  0  0  0  0  0  0  0  0  0  0
   -3.6117    1.0799    0.0000 N   0  0  0  0  0  0  0  0  0  0  0  0
   -3.6117   -0.2549    0.0000 S   0  0  0  0  0  0  0  0  0  0  0  0
   -1.3981    0.0000    0.0000 C   0  0  0  0  0  0  0  0  0  0  0  0
   -1.3981   -0.8250    0.0000 C   0  0  0  0  0  0  0  0  0  0  0  0
   -0.6836   -1.2375    0.0000 C   0  0  0  0  0  0  0  0  0  0  0  0
   -2.1126   -0.4125    0.0000 C   0  0  0  0  0  0  0  0  0  0  0  0
   -2.8271    0.0000    0.0000 C   0  0  0  0  0  0  0  0  0  0  0  0
   -2.8271    0.8250    0.0000 C   0  0  0  0  0  0  0  0  0  0  0  0
   -2.1126    1.2375    0.0000 C   0  0  0  0  0  0  0  0  0  0  0  0
   -2.1126    2.0625    0.0000 O   0  0  0  0  0  0  0  0  0  0  0  0
   -1.3981    0.8250    0.0000 C   0  0  0  0  0  0  0  0  0  0  0  0
   -0.6836    0.4125    0.0000 C   0  0  0  0  0  0  0  0  0  0  0  0
    0.0308    0.0000    0.0000 C   0  0  0  0  0  0  0  0  0  0  0  0
    0.0308   -0.8250    0.0000 N   0  0  0  0  0  0  0  0  0  0  0  0
    0.7453   -1.2375    0.0000 C   0  0  0  0  0  0  0  0  0  0  0  0
    0.7453   -2.0625    0.0000 O   0  0  0  0  0  0  0  0  0  0  0  0
    1.4598   -0.8250    0.0000 C   0  0  0  0  0  0  0  0  0  0  0  0
    1.4598    0.0000    0.0000 C   0  0  0  0  0  0  0  0  0  0  0  0
    2.1742    0.4125    0.0000 C   0  0  0  0  0  0  0  0  0  0  0  0
    2.8887    0.0000    0.0000 C   0  0  0  0  0  0  0  0  0  0  0  0
    3.6032    0.4125    0.0000 C   0  0  0  0  0  0  0  0  0  0  0  0
    4.3177    0.0000    0.0000 C   0  0  0  0  0  0  0  0  0  0  0  0
    4.3177   -0.8250    0.0000 C   0  0  0  0  0  0  0  0  0  0  0  0
    5.0321   -1.2375    0.0000 O   0  0  0  0  0  0  0  0  0  0  0  0
    3.6032   -1.2375    0.0000 C   0  0  0  0  0  0  0  0  0  0  0  0
    2.8887   -0.8250    0.0000 C   0  0  0  0  0  0  0  0  0  0  0  0
    2.1742   -1.2375    0.0000 C   0  0  0  0  0  0  0  0  0  0  0  0
    5.7466   -0.8250    0.0000 C   0  0  0  0  0  0  0  0  0  0  0  0
  1  2  1  0  0  0  0
  2  3  1  0  0  0  0
  2  4  1  0  0  0  0
  2  5  1  0  0  0  0
  5  6  4  0  0  0  0
  5  7  4  0  0  0  0
  6 13  4  0  0  0  0
  7 12  4  0  0  0  0
  8  9  1  0  0  0  0
  8 11  1  0  0  0  0
  8 16  1  0  0  0  0
  8 17  1  0  0  0  0
  9 10  1  0  0  0  0
 10 19  1  0  0  0  0
 11 12  1  0  0  0  0
 12 13  4  0  0  0  0
 13 14  1  0  0  0  0
 14 15  2  0  0  0  0
 14 16  1  0  0  0  0
 17 18  1  0  0  0  0
 18 19  1  0  0  0  0
 19 20  1  0  0  0  0
 20 21  2  0  0  0  0
 20 22  1  0  0  0  0
 22 23  4  0  0  0  0
 22 32  4  0  0  0  0
 23 24  4  0  0  0  0
 24 25  4  0  0  0  0
 25 26  4  0  0  0  0
 25 31  4  0  0  0  0
 26 27  4  0  0  0  0
 27 28  4  0  0  0  0
 28 29  1  0  0  0  0
 28 30  4  0  0  0  0
 29 33  1  0  0  0  0
 30 31  4  0  0  0  0
 31 32  4  0  0  0  0
M  END
> <From>
www.bindingDB.org

> <BindingDB Reactant_set_id>
1397256

> <Ligand InChI>
InChI=1S/C27H30N2O3S/c1-26(2,3)25-28-23-21(30)15-27(16-22(23)33-25)9-11-29(12-10-27)24(31)18-6-5-17-7-8-20(32-4)14-19(17)13-18/h5-8,13-14H,9-12,15-16H2,1-4H3

> <Ligand InChI Key>
ZBHJEULPCWFARX-UHFFFAOYSA-N

> <BindingDB MonomerID>
663874

> <BindingDB Ligand Name>
US20240109915, Example 58

> <Target Name>
Activating signal cointegrator 1 complex subunit 1

> <Target Source Organism According to Curator or DataSource>


> <Ki (nM)>


> <IC50 (nM)>
 7.10

> <Kd (nM)>


> <EC50 (nM)>


> <kon (M-1-s-1)>


> <koff (s-1)>


> <pH>


> <Temp C>


> <Curation/DataSource>
US Patent

> <Article DOI>


> <BindingDB Entry DOI>
10.7270/Q2348QQ2

> <PMID>


> <PubChem AID>


> <Patent Number>
US20240109915

> <Authors>
Bagley, SW; Bootsma, AN; Choi, C; Dow, RL; Edmonds, DJ; Garcia-Irizarry, CN; Gerstenberger, BS; Ingle, G; O''Brien, JG; Parikh, MD; Rescourio, GC; Schmitt, DC

> <Institution>
Pfizer

> <Link to Ligand in BindingDB>
http://www.bindingdb.org/bind/chemsearch/marvin/MolStructure.jsp?monomerid=663874

> <Link to Ligand-Target Pair in BindingDB>
http://www.bindingdb.org/jsp/dbsearch/PrimarySearch_ki.jsp?energyterm=kJ/mole&tag=pol&polymerid=735&target=Activating+signal+cointegrator+1+complex+subunit+1&column=ki&startPg=0&Increment=50&submit=Search

> <Link to Ligand-Target Pair in BindingDB>
http://www.bindingdb.org/jsp/dbsearch/PrimarySearch_ki.jsp?energyterm=kJ/mole&tag=r21&monomerid=663874&enzyme=Activating+signal+cointegrator+1+complex+subunit+1&column=ki&startPg=0&Increment=50&submit=Search

> <Ligand HET ID in PDB>


> <PDB ID(s) for Ligand-Target Complex>


> <PubChem CID>


> <PubChem SID>


> <ChEBI ID of Ligand>


> <ChEMBL ID of Ligand>


> <DrugBank ID of Ligand>


> <IUPHAR_GRAC ID of Ligand>


> <KEGG ID of Ligand>


> <ZINC ID of Ligand>


> <Number of Protein Chains in Target (bigger than 1 implies a multichain complex)>
1

> <BindingDB Target Chain Sequence>
MEVLRPQLIRIDGRNYRKNPVQEQTYQHEEDEEDFYQGSMECADEPCDAYEVEQTPQGFRSTLRAPSLLYNLIHLNTSNDCGFQKITLDCQNIYTWKSRHIVGKRGDTRKKIEMETKTSISIPKPGQDGEIVITGQHRNGVISARTRIDVLLDTFRRKQPFTHFLAFFLNEVEVQEGFLRFQEEVLAKCSMDHGVDSSIFQNPKKLHLTIGMLVLLSEEEIQQTCEMLQQCKEEFINDISGGKPLEVEMAGIEYMNDDPGMVDVLYAKVHMKDGSNRLQELVDRVLERFQASGLIVKEWNSVKLHATVMNTLFRKDPNAEGRYNLYTAEGKYIFKERESFDGRNILKSFALLPRLEYNDAISAHCNLCLPGSSDSPASASQVAGITGVSDAYSQSLPGKS

> <PDB ID(s) of Target Chain>


> <UniProt (SwissProt) Recommended Name of Target Chain>
Activating signal cointegrator 1 complex subunit 1

> <UniProt (SwissProt) Entry Name of Target Chain>
ASCC1_HUMAN

> <UniProt (SwissProt) Primary ID of Target Chain>
Q8N9N2

> <UniProt (SwissProt) Secondary ID(s) of Target Chain>
Q5SW06 Q5SW07 Q96EI8 Q9Y307

> <UniProt (SwissProt) Alternative ID(s) of Target Chain>


> <UniProt (TrEMBL) Submitted Name of Target Chain>


> <UniProt (TrEMBL) Entry Name of Target Chain>


> <UniProt (TrEMBL) Primary ID of Target Chain>


> <UniProt (TrEMBL) Secondary ID(s) of Target Chain>


> <UniProt (TrEMBL) Alternative ID(s) of Target Chain>


$$$$
00337001.cdx
  Mrv0541 06272400352D          

 31 35  0  0  0  0            999 V2000
   -4.9524    0.4125    0.0000 C   0  0  0  0  0  0  0  0  0  0  0  0
   -4.1274    0.4125    0.0000 C   0  0  0  0  0  0  0  0  0  0  0  0
   -4.5399    1.1270    0.0000 C   0  0  0  0  0  0  0  0  0  0  0  0
   -4.5399   -0.3020    0.0000 C   0  0  0  0  0  0  0  0  0  0  0  0
   -3.3024    0.4125    0.0000 C   0  0  0  0  0  0  0  0  0  0  0  0
   -2.8175    1.0799    0.0000 N   0  0  0  0  0  0  0  0  0  0  0  0
   -2.8175   -0.2549    0.0000 S   0  0  0  0  0  0  0  0  0  0  0  0
   -0.6039    0.0000    0.0000 C   0  0  0  0  0  0  0  0  0  0  0  0
   -0.6039   -0.8250    0.0000 C   0  0  0  0  0  0  0  0  0  0  0  0
    0.1105   -1.2375    0.0000 C   0  0  0  0  0  0  0  0  0  0  0  0
   -1.3184   -0.4125    0.0000 C   0  0  0  0  0  0  0  0  0  0  0  0
   -2.0329    0.0000    0.0000 C   0  0  0  0  0  0  0  0  0  0  0  0
   -2.0329    0.8250    0.0000 C   0  0  0  0  0  0  0  0  0  0  0  0
   -1.3184    1.2375    0.0000 C   0  0  0  0  0  0  0  0  0  0  0  0
   -1.3184    2.0625    0.0000 O   0  0  0  0  0  0  0  0  0  0  0  0
   -0.6039    0.8250    0.0000 C   0  0  0  0  0  0  0  0  0  0  0  0
    0.1105    0.4125    0.0000 C   0  0  0  0  0  0  0  0  0  0  0  0
    0.8250    0.0000    0.0000 C   0  0  0  0  0  0  0  0  0  0  0  0
    0.8250   -0.8250    0.0000 N   0  0  0  0  0  0  0  0  0  0  0  0
    1.5395   -1.2375    0.0000 C   0  0  0  0  0  0  0  0  0  0  0  0
    1.5395   -2.0625    0.0000 O   0  0  0  0  0  0  0  0  0  0  0  0
    2.2539   -0.8250    0.0000 C   0  0  0  0  0  0  0  0  0  0  0  0
    2.2539    0.0000    0.0000 C   0  0  0  0  0  0  0  0  0  0  0  0
    2.9684    0.4125    0.0000 C   0  0  0  0  0  0  0  0  0  0  0  0
    2.9684    1.2375    0.0000 Cl  0  0  0  0  0  0  0  0  0  0  0  0
    3.6829    0.0000    0.0000 C   0  0  0  0  0  0  0  0  0  0  0  0
    3.6829   -0.8250    0.0000 C   0  0  0  0  0  0  0  0  0  0  0  0
    4.4675   -1.0799    0.0000 C   0  0  0  0  0  0  0  0  0  0  0  0
    4.9524   -0.4125    0.0000 C   0  0  0  0  0  0  0  0  0  0  0  0
    4.4675    0.2549    0.0000 N   0  0  0  0  0  0  0  0  0  0  0  0
    2.9684   -1.2375    0.0000 C   0  0  0  0  0  0  0  0  0  0  0  0
  1  2  1  0  0  0  0
  2  3  1  0  0  0  0
  2  4  1  0  0  0  0
  2  5  1  0  0  0  0
  5  6  4  0  0  0  0
  5  7  4  0  0  0  0
  6 13  4  0  0  0  0
  7 12  4  0  0  0  0
  8  9  1  0  0  0  0
  8 11  1  0  0  0  0
  8 16  1  0  0  0  0
  8 17  1  0  0  0  0
  9 10  1  0  0  0  0
 10 19  1  0  0  0  0
 11 12  1  0  0  0  0
 12 13  4  0  0  0  0
 13 14  1  0  0  0  0
 14 15  2  0  0  0  0
 14 16  1  0  0  0  0
 17 18  1  0  0  0  0
 18 19  1  0  0  0  0
 19 20  1  0  0  0  0
 20 21  2  0  0  0  0
 20 22  1  0  0  0  0
 22 23  4  0  0  0  0
 22 31  4  0  0  0  0
 23 24  4  0  0  0  0
 24 25  1  0  0  0  0
 24 26  4  0  0  0  0
 26 30  4  0  0  0  0
 26 27  4  0  0  0  0
 27 28  4  0  0  0  0
 27 31  4  0  0  0  0
 28 29  4  0  0  0  0
 29 30  4  0  0  0  0
M  STY  1   1 DAT
M  SAL   1  1  30
M  SDT   1 MRV_IMPLICIT_H                                        
M  SDD   1     0.0000    0.0000    DR    ALL  0       0  
M  SED   1 IMPL_H1
M  END
> <From>
www.bindingDB.org

> <BindingDB Reactant_set_id>
1397299

> <Ligand InChI>
InChI=1S/C24H26ClN3O2S/c1-23(2,3)22-27-20-17(29)12-24(13-18(20)31-22)5-8-28(9-6-24)21(30)15-10-14-4-7-26-19(14)16(25)11-15/h4,7,10-11,26H,5-6,8-9,12-13H2,1-3H3

> <Ligand InChI Key>
OZYRCOGOJNRPCN-UHFFFAOYSA-N

> <BindingDB MonomerID>
663917

> <BindingDB Ligand Name>
US20240109915, Example 102

> <Target Name>
Activating signal cointegrator 1 complex subunit 1

> <Target Source Organism According to Curator or DataSource>


> <Ki (nM)>


> <IC50 (nM)>
 7.20

> <Kd (nM)>


> <EC50 (nM)>


> <kon (M-1-s-1)>


> <koff (s-1)>


> <pH>


> <Temp C>


> <Curation/DataSource>
US Patent

> <Article DOI>


> <BindingDB Entry DOI>
10.7270/Q2348QQ2

> <PMID>


> <PubChem AID>


> <Patent Number>
US20240109915

> <Authors>
Bagley, SW; Bootsma, AN; Choi, C; Dow, RL; Edmonds, DJ; Garcia-Irizarry, CN; Gerstenberger, BS; Ingle, G; O''Brien, JG; Parikh, MD; Rescourio, GC; Schmitt, DC

> <Institution>
Pfizer

> <Link to Ligand in BindingDB>
http://www.bindingdb.org/bind/chemsearch/marvin/MolStructure.jsp?monomerid=663917

> <Link to Ligand-Target Pair in BindingDB>
http://www.bindingdb.org/jsp/dbsearch/PrimarySearch_ki.jsp?energyterm=kJ/mole&tag=pol&polymerid=735&target=Activating+signal+cointegrator+1+complex+subunit+1&column=ki&startPg=0&Increment=50&submit=Search

> <Link to Ligand-Target Pair in BindingDB>
http://www.bindingdb.org/jsp/dbsearch/PrimarySearch_ki.jsp?energyterm=kJ/mole&tag=r21&monomerid=663917&enzyme=Activating+signal+cointegrator+1+complex+subunit+1&column=ki&startPg=0&Increment=50&submit=Search

> <Ligand HET ID in PDB>


> <PDB ID(s) for Ligand-Target Complex>


> <PubChem CID>


> <PubChem SID>


> <ChEBI ID of Ligand>


> <ChEMBL ID of Ligand>


> <DrugBank ID of Ligand>


> <IUPHAR_GRAC ID of Ligand>


> <KEGG ID of Ligand>


> <ZINC ID of Ligand>


> <Number of Protein Chains in Target (bigger than 1 implies a multichain complex)>
1

> <BindingDB Target Chain Sequence>
MEVLRPQLIRIDGRNYRKNPVQEQTYQHEEDEEDFYQGSMECADEPCDAYEVEQTPQGFRSTLRAPSLLYNLIHLNTSNDCGFQKITLDCQNIYTWKSRHIVGKRGDTRKKIEMETKTSISIPKPGQDGEIVITGQHRNGVISARTRIDVLLDTFRRKQPFTHFLAFFLNEVEVQEGFLRFQEEVLAKCSMDHGVDSSIFQNPKKLHLTIGMLVLLSEEEIQQTCEMLQQCKEEFINDISGGKPLEVEMAGIEYMNDDPGMVDVLYAKVHMKDGSNRLQELVDRVLERFQASGLIVKEWNSVKLHATVMNTLFRKDPNAEGRYNLYTAEGKYIFKERESFDGRNILKSFALLPRLEYNDAISAHCNLCLPGSSDSPASASQVAGITGVSDAYSQSLPGKS

> <PDB ID(s) of Target Chain>


> <UniProt (SwissProt) Recommended Name of Target Chain>
Activating signal cointegrator 1 complex subunit 1

> <UniProt (SwissProt) Entry Name of Target Chain>
ASCC1_HUMAN

> <UniProt (SwissProt) Primary ID of Target Chain>
Q8N9N2

> <UniProt (SwissProt) Secondary ID(s) of Target Chain>
Q5SW06 Q5SW07 Q96EI8 Q9Y307

> <UniProt (SwissProt) Alternative ID(s) of Target Chain>


> <UniProt (TrEMBL) Submitted Name of Target Chain>


> <UniProt (TrEMBL) Entry Name of Target Chain>


> <UniProt (TrEMBL) Primary ID of Target Chain>


> <UniProt (TrEMBL) Secondary ID(s) of Target Chain>


> <UniProt (TrEMBL) Alternative ID(s) of Target Chain>


$$$$
00258001.cdx
  Mrv0541 06272400352D          

 38 42  0  0  0  0            999 V2000
   -2.1126   -0.2062    0.0000 C   0  0  0  0  0  0  0  0  0  0  0  0
   -2.1126   -1.0313    0.0000 C   0  0  0  0  0  0  0  0  0  0  0  0
   -1.3981   -1.4437    0.0000 C   0  0  0  0  0  0  0  0  0  0  0  0
   -0.6836   -1.0313    0.0000 C   0  0  0  0  0  0  0  0  0  0  0  0
   -0.6836   -0.2062    0.0000 C   0  0  0  0  0  0  0  0  0  0  0  0
   -1.3981    0.2062    0.0000 C   0  0  0  0  0  0  0  0  0  0  0  0
   -0.6836   -1.8563    0.0000 C   0  0  0  0  0  0  0  0  0  0  0  0
    0.0308   -2.2687    0.0000 C   0  0  0  0  0  0  0  0  0  0  0  0
    0.7453   -1.8563    0.0000 N   0  0  0  0  0  0  0  0  0  0  0  0
    0.7453   -1.0313    0.0000 C   0  0  0  0  0  0  0  0  0  0  0  0
    0.0308   -0.6187    0.0000 C   0  0  0  0  0  0  0  0  0  0  0  0
    1.4598   -2.2687    0.0000 C   0  0  0  0  0  0  0  0  0  0  0  0
    2.1742   -1.8563    0.0000 C   0  0  0  0  0  0  0  0  0  0  0  0
    1.4598   -3.0938    0.0000 O   0  0  0  0  0  0  0  0  0  0  0  0
    2.8887   -2.2687    0.0000 C   0  0  0  0  0  0  0  0  0  0  0  0
    3.6032   -1.8563    0.0000 C   0  0  0  0  0  0  0  0  0  0  0  0
    3.6032   -1.0313    0.0000 N   0  0  0  0  0  0  0  0  0  0  0  0
    2.8887   -0.6187    0.0000 C   0  0  0  0  0  0  0  0  0  0  0  0
    2.1742   -1.0313    0.0000 C   0  0  0  0  0  0  0  0  0  0  0  0
    2.8887    0.2062    0.0000 C   0  0  0  0  0  0  0  0  0  0  0  0
   -1.3981    1.0313    0.0000 O   0  0  0  0  0  0  0  0  0  0  0  0
   -2.8972    0.0487    0.0000 N   0  0  0  0  0  0  0  0  0  0  0  0
   -3.3821   -0.6187    0.0000 C   0  0  0  0  0  0  0  0  0  0  0  0
   -2.8972   -1.2862    0.0000 S   0  0  0  0  0  0  0  0  0  0  0  0
   -4.2071   -0.6187    0.0000 C   0  0  0  0  0  0  0  0  0  0  0  0
   -4.6196    0.0957    0.0000 C   0  0  0  0  0  0  0  0  0  0  0  0
   -4.6196   -1.3332    0.0000 C   0  0  0  0  0  0  0  0  0  0  0  0
   -5.0321   -0.6187    0.0000 C   0  0  0  0  0  0  0  0  0  0  0  0
    3.6032    0.6188    0.0000 C   0  0  0  0  0  0  0  0  0  0  0  0
    3.6032    1.4438    0.0000 C   0  0  0  0  0  0  0  0  0  0  0  0
    2.8887    1.8563    0.0000 C   0  0  0  0  0  0  0  0  0  0  0  0
    2.1742    1.4438    0.0000 C   0  0  0  0  0  0  0  0  0  0  0  0
    2.1742    0.6188    0.0000 C   0  0  0  0  0  0  0  0  0  0  0  0
    4.3177   -2.2687    0.0000 O   0  0  0  0  0  0  0  0  0  0  0  0
    5.0321   -1.8563    0.0000 C   0  0  0  0  0  0  0  0  0  0  0  0
    2.8887    2.6812    0.0000 C   0  0  0  0  0  0  0  0  0  0  0  0
    2.1742    3.0938    0.0000 N   0  0  0  0  0  0  0  0  0  0  0  0
    3.6032    3.0938    0.0000 O   0  0  0  0  0  0  0  0  0  0  0  0
  1  2  4  0  0  0  0
  2  3  1  0  0  0  0
  3  4  1  0  0  0  0
  4  5  1  0  0  0  0
  5  6  1  0  0  0  0
  6  1  1  0  0  0  0
  4  7  1  0  0  0  0
  7  8  1  0  0  0  0
  8  9  1  0  0  0  0
  9 10  1  0  0  0  0
 10 11  1  0  0  0  0
 11  4  1  0  0  0  0
  9 12  1  0  0  0  0
 12 13  1  0  0  0  0
 12 14  2  0  0  0  0
 13 15  4  0  0  0  0
 15 16  4  0  0  0  0
 16 17  4  0  0  0  0
 17 18  4  0  0  0  0
 18 19  4  0  0  0  0
 19 13  4  0  0  0  0
 18 20  1  0  0  0  0
  6 21  2  0  0  0  0
  1 22  4  0  0  0  0
 22 23  4  0  0  0  0
 23 24  4  0  0  0  0
 24  2  4  0  0  0  0
 23 25  1  0  0  0  0
 25 26  1  0  0  0  0
 25 27  1  0  0  0  0
 25 28  1  0  0  0  0
 20 29  4  0  0  0  0
 29 30  4  0  0  0  0
 30 31  4  0  0  0  0
 31 32  4  0  0  0  0
 32 33  4  0  0  0  0
 33 20  4  0  0  0  0
 16 34  1  0  0  0  0
 34 35  1  0  0  0  0
 31 36  1  0  0  0  0
 36 37  1  0  0  0  0
 36 38  2  0  0  0  0
M  END
> <From>
www.bindingDB.org

> <BindingDB Reactant_set_id>
1397224

> <Ligand InChI>
InChI=1S/C29H32N4O4S/c1-28(2,3)27-32-24-21(34)15-29(16-22(24)38-27)9-11-33(12-10-29)26(36)19-13-20(31-23(14-19)37-4)17-5-7-18(8-6-17)25(30)35/h5-8,13-14H,9-12,15-16H2,1-4H3,(H2,30,35)

> <Ligand InChI Key>
OEGPYQSYECHYDB-UHFFFAOYSA-N

> <BindingDB MonomerID>
663842

> <BindingDB Ligand Name>
US20240109915, Example 23

> <Target Name>
Activating signal cointegrator 1 complex subunit 1

> <Target Source Organism According to Curator or DataSource>


> <Ki (nM)>


> <IC50 (nM)>
 7.20

> <Kd (nM)>


> <EC50 (nM)>


> <kon (M-1-s-1)>


> <koff (s-1)>


> <pH>


> <Temp C>


> <Curation/DataSource>
US Patent

> <Article DOI>


> <BindingDB Entry DOI>
10.7270/Q2348QQ2

> <PMID>


> <PubChem AID>


> <Patent Number>
US20240109915

> <Authors>
Bagley, SW; Bootsma, AN; Choi, C; Dow, RL; Edmonds, DJ; Garcia-Irizarry, CN; Gerstenberger, BS; Ingle, G; O''Brien, JG; Parikh, MD; Rescourio, GC; Schmitt, DC

> <Institution>
Pfizer

> <Link to Ligand in BindingDB>
http://www.bindingdb.org/bind/chemsearch/marvin/MolStructure.jsp?monomerid=663842

> <Link to Ligand-Target Pair in BindingDB>
http://www.bindingdb.org/jsp/dbsearch/PrimarySearch_ki.jsp?energyterm=kJ/mole&tag=pol&polymerid=735&target=Activating+signal+cointegrator+1+complex+subunit+1&column=ki&startPg=0&Increment=50&submit=Search

> <Link to Ligand-Target Pair in BindingDB>
http://www.bindingdb.org/jsp/dbsearch/PrimarySearch_ki.jsp?energyterm=kJ/mole&tag=r21&monomerid=663842&enzyme=Activating+signal+cointegrator+1+complex+subunit+1&column=ki&startPg=0&Increment=50&submit=Search

> <Ligand HET ID in PDB>


> <PDB ID(s) for Ligand-Target Complex>


> <PubChem CID>


> <PubChem SID>


> <ChEBI ID of Ligand>


> <ChEMBL ID of Ligand>


> <DrugBank ID of Ligand>


> <IUPHAR_GRAC ID of Ligand>


> <KEGG ID of Ligand>


> <ZINC ID of Ligand>


> <Number of Protein Chains in Target (bigger than 1 implies a multichain complex)>
1

> <BindingDB Target Chain Sequence>
MEVLRPQLIRIDGRNYRKNPVQEQTYQHEEDEEDFYQGSMECADEPCDAYEVEQTPQGFRSTLRAPSLLYNLIHLNTSNDCGFQKITLDCQNIYTWKSRHIVGKRGDTRKKIEMETKTSISIPKPGQDGEIVITGQHRNGVISARTRIDVLLDTFRRKQPFTHFLAFFLNEVEVQEGFLRFQEEVLAKCSMDHGVDSSIFQNPKKLHLTIGMLVLLSEEEIQQTCEMLQQCKEEFINDISGGKPLEVEMAGIEYMNDDPGMVDVLYAKVHMKDGSNRLQELVDRVLERFQASGLIVKEWNSVKLHATVMNTLFRKDPNAEGRYNLYTAEGKYIFKERESFDGRNILKSFALLPRLEYNDAISAHCNLCLPGSSDSPASASQVAGITGVSDAYSQSLPGKS

> <PDB ID(s) of Target Chain>


> <UniProt (SwissProt) Recommended Name of Target Chain>
Activating signal cointegrator 1 complex subunit 1

> <UniProt (SwissProt) Entry Name of Target Chain>
ASCC1_HUMAN

> <UniProt (SwissProt) Primary ID of Target Chain>
Q8N9N2

> <UniProt (SwissProt) Secondary ID(s) of Target Chain>
Q5SW06 Q5SW07 Q96EI8 Q9Y307

> <UniProt (SwissProt) Alternative ID(s) of Target Chain>


> <UniProt (TrEMBL) Submitted Name of Target Chain>


> <UniProt (TrEMBL) Entry Name of Target Chain>


> <UniProt (TrEMBL) Primary ID of Target Chain>


> <UniProt (TrEMBL) Secondary ID(s) of Target Chain>


> <UniProt (TrEMBL) Alternative ID(s) of Target Chain>


$$$$
00251001.cdx
  Mrv0541 06272400352D          

 32 36  0  0  0  0            999 V2000
   -2.1126    0.8250    0.0000 C   0  0  0  0  0  0  0  0  0  0  0  0
   -2.1126    0.0000    0.0000 C   0  0  0  0  0  0  0  0  0  0  0  0
   -1.3981   -0.4125    0.0000 C   0  0  0  0  0  0  0  0  0  0  0  0
   -0.6836    0.0000    0.0000 C   0  0  0  0  0  0  0  0  0  0  0  0
   -0.6836    0.8250    0.0000 C   0  0  0  0  0  0  0  0  0  0  0  0
   -1.3981    1.2375    0.0000 C   0  0  0  0  0  0  0  0  0  0  0  0
   -0.6836   -0.8250    0.0000 C   0  0  0  0  0  0  0  0  0  0  0  0
    0.0308   -1.2375    0.0000 C   0  0  0  0  0  0  0  0  0  0  0  0
    0.7453   -0.8250    0.0000 N   0  0  0  0  0  0  0  0  0  0  0  0
    0.7453    0.0000    0.0000 C   0  0  0  0  0  0  0  0  0  0  0  0
    0.0308    0.4125    0.0000 C   0  0  0  0  0  0  0  0  0  0  0  0
    1.4598   -1.2375    0.0000 C   0  0  0  0  0  0  0  0  0  0  0  0
    2.1742   -0.8250    0.0000 C   0  0  0  0  0  0  0  0  0  0  0  0
    1.4598   -2.0625    0.0000 O   0  0  0  0  0  0  0  0  0  0  0  0
    2.8887   -1.2375    0.0000 C   0  0  0  0  0  0  0  0  0  0  0  0
    3.6032   -0.8250    0.0000 C   0  0  0  0  0  0  0  0  0  0  0  0
    3.6032    0.0000    0.0000 C   0  0  0  0  0  0  0  0  0  0  0  0
    2.8887    0.4125    0.0000 C   0  0  0  0  0  0  0  0  0  0  0  0
    2.1742    0.0000    0.0000 C   0  0  0  0  0  0  0  0  0  0  0  0
    2.8887    1.2375    0.0000 C   0  0  0  0  0  0  0  0  0  0  0  0
   -1.3981    2.0625    0.0000 O   0  0  0  0  0  0  0  0  0  0  0  0
   -2.8972    1.0799    0.0000 N   0  0  0  0  0  0  0  0  0  0  0  0
   -3.3821    0.4125    0.0000 C   0  0  0  0  0  0  0  0  0  0  0  0
   -2.8972   -0.2549    0.0000 S   0  0  0  0  0  0  0  0  0  0  0  0
   -4.2071    0.4125    0.0000 C   0  0  0  0  0  0  0  0  0  0  0  0
   -4.6196    1.1270    0.0000 C   0  0  0  0  0  0  0  0  0  0  0  0
   -4.6196   -0.3020    0.0000 C   0  0  0  0  0  0  0  0  0  0  0  0
   -5.0321    0.4125    0.0000 C   0  0  0  0  0  0  0  0  0  0  0  0
    4.3177   -1.2375    0.0000 C   0  0  0  0  0  0  0  0  0  0  0  0
    5.0321   -0.8250    0.0000 C   0  0  0  0  0  0  0  0  0  0  0  0
    5.0321    0.0000    0.0000 C   0  0  0  0  0  0  0  0  0  0  0  0
    4.3177    0.4125    0.0000 C   0  0  0  0  0  0  0  0  0  0  0  0
  1  2  4  0  0  0  0
  2  3  1  0  0  0  0
  3  4  1  0  0  0  0
  4  5  1  0  0  0  0
  5  6  1  0  0  0  0
  6  1  1  0  0  0  0
  4  7  1  0  0  0  0
  7  8  1  0  0  0  0
  8  9  1  0  0  0  0
  9 10  1  0  0  0  0
 10 11  1  0  0  0  0
 11  4  1  0  0  0  0
  9 12  1  0  0  0  0
 12 13  1  0  0  0  0
 12 14  2  0  0  0  0
 13 15  4  0  0  0  0
 15 16  4  0  0  0  0
 16 17  4  0  0  0  0
 17 18  4  0  0  0  0
 18 19  4  0  0  0  0
 19 13  4  0  0  0  0
 18 20  1  0  0  0  0
  6 21  2  0  0  0  0
  1 22  4  0  0  0  0
 22 23  4  0  0  0  0
 23 24  4  0  0  0  0
 24  2  4  0  0  0  0
 23 25  1  0  0  0  0
 25 26  1  0  0  0  0
 25 27  1  0  0  0  0
 25 28  1  0  0  0  0
 16 29  4  0  0  0  0
 29 30  4  0  0  0  0
 30 31  4  0  0  0  0
 31 32  4  0  0  0  0
 32 17  4  0  0  0  0
M  END
> <From>
www.bindingDB.org

> <BindingDB Reactant_set_id>
1397217

> <Ligand InChI>
InChI=1S/C27H30N2O2S/c1-17-13-19(14-18-7-5-6-8-20(17)18)24(31)29-11-9-27(10-12-29)15-21(30)23-22(16-27)32-25(28-23)26(2,3)4/h5-8,13-14H,9-12,15-16H2,1-4H3

> <Ligand InChI Key>
VDQUBKQYXNAARO-UHFFFAOYSA-N

> <BindingDB MonomerID>
663835

> <BindingDB Ligand Name>
US20240109915, Example 16

> <Target Name>
Activating signal cointegrator 1 complex subunit 1

> <Target Source Organism According to Curator or DataSource>


> <Ki (nM)>


> <IC50 (nM)>
 7.30

> <Kd (nM)>


> <EC50 (nM)>


> <kon (M-1-s-1)>


> <koff (s-1)>


> <pH>


> <Temp C>


> <Curation/DataSource>
US Patent

> <Article DOI>


> <BindingDB Entry DOI>
10.7270/Q2348QQ2

> <PMID>


> <PubChem AID>


> <Patent Number>
US20240109915

> <Authors>
Bagley, SW; Bootsma, AN; Choi, C; Dow, RL; Edmonds, DJ; Garcia-Irizarry, CN; Gerstenberger, BS; Ingle, G; O''Brien, JG; Parikh, MD; Rescourio, GC; Schmitt, DC

> <Institution>
Pfizer

> <Link to Ligand in BindingDB>
http://www.bindingdb.org/bind/chemsearch/marvin/MolStructure.jsp?monomerid=663835

> <Link to Ligand-Target Pair in BindingDB>
http://www.bindingdb.org/jsp/dbsearch/PrimarySearch_ki.jsp?energyterm=kJ/mole&tag=pol&polymerid=735&target=Activating+signal+cointegrator+1+complex+subunit+1&column=ki&startPg=0&Increment=50&submit=Search

> <Link to Ligand-Target Pair in BindingDB>
http://www.bindingdb.org/jsp/dbsearch/PrimarySearch_ki.jsp?energyterm=kJ/mole&tag=r21&monomerid=663835&enzyme=Activating+signal+cointegrator+1+complex+subunit+1&column=ki&startPg=0&Increment=50&submit=Search

> <Ligand HET ID in PDB>


> <PDB ID(s) for Ligand-Target Complex>


> <PubChem CID>


> <PubChem SID>


> <ChEBI ID of Ligand>


> <ChEMBL ID of Ligand>


> <DrugBank ID of Ligand>


> <IUPHAR_GRAC ID of Ligand>


> <KEGG ID of Ligand>


> <ZINC ID of Ligand>


> <Number of Protein Chains in Target (bigger than 1 implies a multichain complex)>
1

> <BindingDB Target Chain Sequence>
MEVLRPQLIRIDGRNYRKNPVQEQTYQHEEDEEDFYQGSMECADEPCDAYEVEQTPQGFRSTLRAPSLLYNLIHLNTSNDCGFQKITLDCQNIYTWKSRHIVGKRGDTRKKIEMETKTSISIPKPGQDGEIVITGQHRNGVISARTRIDVLLDTFRRKQPFTHFLAFFLNEVEVQEGFLRFQEEVLAKCSMDHGVDSSIFQNPKKLHLTIGMLVLLSEEEIQQTCEMLQQCKEEFINDISGGKPLEVEMAGIEYMNDDPGMVDVLYAKVHMKDGSNRLQELVDRVLERFQASGLIVKEWNSVKLHATVMNTLFRKDPNAEGRYNLYTAEGKYIFKERESFDGRNILKSFALLPRLEYNDAISAHCNLCLPGSSDSPASASQVAGITGVSDAYSQSLPGKS

> <PDB ID(s) of Target Chain>


> <UniProt (SwissProt) Recommended Name of Target Chain>
Activating signal cointegrator 1 complex subunit 1

> <UniProt (SwissProt) Entry Name of Target Chain>
ASCC1_HUMAN

> <UniProt (SwissProt) Primary ID of Target Chain>
Q8N9N2

> <UniProt (SwissProt) Secondary ID(s) of Target Chain>
Q5SW06 Q5SW07 Q96EI8 Q9Y307

> <UniProt (SwissProt) Alternative ID(s) of Target Chain>


> <UniProt (TrEMBL) Submitted Name of Target Chain>


> <UniProt (TrEMBL) Entry Name of Target Chain>


> <UniProt (TrEMBL) Primary ID of Target Chain>


> <UniProt (TrEMBL) Secondary ID(s) of Target Chain>


> <UniProt (TrEMBL) Alternative ID(s) of Target Chain>


$$$$
00280001.cdx
  Mrv0541 06272400352D          

 32 36  0  0  0  0            999 V2000
   -4.9524    0.4125    0.0000 C   0  0  0  0  0  0  0  0  0  0  0  0
   -4.1274    0.4125    0.0000 C   0  0  0  0  0  0  0  0  0  0  0  0
   -4.5399   -0.3020    0.0000 C   0  0  0  0  0  0  0  0  0  0  0  0
   -4.5399    1.1270    0.0000 C   0  0  0  0  0  0  0  0  0  0  0  0
   -3.3024    0.4125    0.0000 C   0  0  0  0  0  0  0  0  0  0  0  0
   -2.8175    1.0799    0.0000 N   0  0  0  0  0  0  0  0  0  0  0  0
   -2.8175   -0.2549    0.0000 S   0  0  0  0  0  0  0  0  0  0  0  0
   -0.6039    0.0000    0.0000 C   0  0  0  0  0  0  0  0  0  0  0  0
   -0.6039   -0.8250    0.0000 C   0  0  0  0  0  0  0  0  0  0  0  0
    0.1105   -1.2375    0.0000 C   0  0  0  0  0  0  0  0  0  0  0  0
   -1.3184   -0.4125    0.0000 C   0  0  0  0  0  0  0  0  0  0  0  0
   -2.0329    0.0000    0.0000 C   0  0  0  0  0  0  0  0  0  0  0  0
   -2.0329    0.8250    0.0000 C   0  0  0  0  0  0  0  0  0  0  0  0
   -1.3184    1.2375    0.0000 C   0  0  0  0  0  0  0  0  0  0  0  0
   -1.3184    2.0625    0.0000 O   0  0  0  0  0  0  0  0  0  0  0  0
   -0.6039    0.8250    0.0000 C   0  0  0  0  0  0  0  0  0  0  0  0
    0.1105    0.4125    0.0000 C   0  0  0  0  0  0  0  0  0  0  0  0
    0.8250    0.0000    0.0000 C   0  0  0  0  0  0  0  0  0  0  0  0
    0.8250   -0.8250    0.0000 N   0  0  0  0  0  0  0  0  0  0  0  0
    4.4675    0.2549    0.0000 N   0  0  0  0  0  0  0  0  0  0  0  0
    2.9684   -1.2375    0.0000 C   0  0  0  0  0  0  0  0  0  0  0  0
    3.6829   -0.8250    0.0000 C   0  0  0  0  0  0  0  0  0  0  0  0
    4.4675   -1.0799    0.0000 C   0  0  0  0  0  0  0  0  0  0  0  0
    2.2539   -0.8250    0.0000 C   0  0  0  0  0  0  0  0  0  0  0  0
    1.5395   -1.2375    0.0000 C   0  0  0  0  0  0  0  0  0  0  0  0
    1.5395   -2.0625    0.0000 O   0  0  0  0  0  0  0  0  0  0  0  0
    2.2539    0.0000    0.0000 C   0  0  0  0  0  0  0  0  0  0  0  0
    2.9684    0.4125    0.0000 C   0  0  0  0  0  0  0  0  0  0  0  0
    2.9684    1.2375    0.0000 C   0  0  0  0  0  0  0  0  0  0  0  0
    3.6829    0.0000    0.0000 C   0  0  0  0  0  0  0  0  0  0  0  0
    4.9524   -0.4125    0.0000 N   0  0  0  0  0  0  0  0  0  0  0  0
    4.7224   -1.8646    0.0000 C   0  0  0  0  0  0  0  0  0  0  0  0
  1  2  1  0  0  0  0
  2  3  1  0  0  0  0
  2  4  1  0  0  0  0
  2  5  1  0  0  0  0
  5  6  4  0  0  0  0
  5  7  4  0  0  0  0
  6 13  4  0  0  0  0
  7 12  4  0  0  0  0
  8  9  1  0  0  0  0
  8 11  1  0  0  0  0
  8 16  1  0  0  0  0
  8 17  1  0  0  0  0
  9 10  1  0  0  0  0
 10 19  1  0  0  0  0
 11 12  1  0  0  0  0
 12 13  4  0  0  0  0
 13 14  1  0  0  0  0
 14 15  2  0  0  0  0
 14 16  1  0  0  0  0
 17 18  1  0  0  0  0
 18 19  1  0  0  0  0
 19 25  1  0  0  0  0
 20 31  4  0  0  0  0
 20 30  4  0  0  0  0
 21 22  4  0  0  0  0
 21 24  4  0  0  0  0
 22 23  4  0  0  0  0
 22 30  4  0  0  0  0
 23 31  4  0  0  0  0
 23 32  1  0  0  0  0
 24 25  1  0  0  0  0
 24 27  4  0  0  0  0
 25 26  2  0  0  0  0
 27 28  4  0  0  0  0
 28 29  1  0  0  0  0
 28 30  4  0  0  0  0
M  STY  1   1 DAT
M  SAL   1  1  20
M  SDT   1 MRV_IMPLICIT_H                                        
M  SDD   1     0.0000    0.0000    DR    ALL  0       0  
M  SED   1 IMPL_H1
M  END
> <From>
www.bindingDB.org

> <BindingDB Reactant_set_id>
1397244

> <Ligand InChI>
InChI=1S/C25H30N4O2S/c1-14-10-16(11-17-15(2)27-28-20(14)17)22(31)29-8-6-25(7-9-29)12-18(30)21-19(13-25)32-23(26-21)24(3,4)5/h10-11H,6-9,12-13H2,1-5H3,(H,27,28)

> <Ligand InChI Key>
DCQGURJSEWRHCN-UHFFFAOYSA-N

> <BindingDB MonomerID>
663862

> <BindingDB Ligand Name>
US20240109915, Example 45

> <Target Name>
Activating signal cointegrator 1 complex subunit 1

> <Target Source Organism According to Curator or DataSource>


> <Ki (nM)>


> <IC50 (nM)>
 7.60

> <Kd (nM)>


> <EC50 (nM)>


> <kon (M-1-s-1)>


> <koff (s-1)>


> <pH>


> <Temp C>


> <Curation/DataSource>
US Patent

> <Article DOI>


> <BindingDB Entry DOI>
10.7270/Q2348QQ2

> <PMID>


> <PubChem AID>


> <Patent Number>
US20240109915

> <Authors>
Bagley, SW; Bootsma, AN; Choi, C; Dow, RL; Edmonds, DJ; Garcia-Irizarry, CN; Gerstenberger, BS; Ingle, G; O''Brien, JG; Parikh, MD; Rescourio, GC; Schmitt, DC

> <Institution>
Pfizer

> <Link to Ligand in BindingDB>
http://www.bindingdb.org/bind/chemsearch/marvin/MolStructure.jsp?monomerid=663862

> <Link to Ligand-Target Pair in BindingDB>
http://www.bindingdb.org/jsp/dbsearch/PrimarySearch_ki.jsp?energyterm=kJ/mole&tag=pol&polymerid=735&target=Activating+signal+cointegrator+1+complex+subunit+1&column=ki&startPg=0&Increment=50&submit=Search

> <Link to Ligand-Target Pair in BindingDB>
http://www.bindingdb.org/jsp/dbsearch/PrimarySearch_ki.jsp?energyterm=kJ/mole&tag=r21&monomerid=663862&enzyme=Activating+signal+cointegrator+1+complex+subunit+1&column=ki&startPg=0&Increment=50&submit=Search

> <Ligand HET ID in PDB>


> <PDB ID(s) for Ligand-Target Complex>


> <PubChem CID>


> <PubChem SID>


> <ChEBI ID of Ligand>


> <ChEMBL ID of Ligand>


> <DrugBank ID of Ligand>


> <IUPHAR_GRAC ID of Ligand>


> <KEGG ID of Ligand>


> <ZINC ID of Ligand>


> <Number of Protein Chains in Target (bigger than 1 implies a multichain complex)>
1

> <BindingDB Target Chain Sequence>
MEVLRPQLIRIDGRNYRKNPVQEQTYQHEEDEEDFYQGSMECADEPCDAYEVEQTPQGFRSTLRAPSLLYNLIHLNTSNDCGFQKITLDCQNIYTWKSRHIVGKRGDTRKKIEMETKTSISIPKPGQDGEIVITGQHRNGVISARTRIDVLLDTFRRKQPFTHFLAFFLNEVEVQEGFLRFQEEVLAKCSMDHGVDSSIFQNPKKLHLTIGMLVLLSEEEIQQTCEMLQQCKEEFINDISGGKPLEVEMAGIEYMNDDPGMVDVLYAKVHMKDGSNRLQELVDRVLERFQASGLIVKEWNSVKLHATVMNTLFRKDPNAEGRYNLYTAEGKYIFKERESFDGRNILKSFALLPRLEYNDAISAHCNLCLPGSSDSPASASQVAGITGVSDAYSQSLPGKS

> <PDB ID(s) of Target Chain>


> <UniProt (SwissProt) Recommended Name of Target Chain>
Activating signal cointegrator 1 complex subunit 1

> <UniProt (SwissProt) Entry Name of Target Chain>
ASCC1_HUMAN

> <UniProt (SwissProt) Primary ID of Target Chain>
Q8N9N2

> <UniProt (SwissProt) Secondary ID(s) of Target Chain>
Q5SW06 Q5SW07 Q96EI8 Q9Y307

> <UniProt (SwissProt) Alternative ID(s) of Target Chain>


> <UniProt (TrEMBL) Submitted Name of Target Chain>


> <UniProt (TrEMBL) Entry Name of Target Chain>


> <UniProt (TrEMBL) Primary ID of Target Chain>


> <UniProt (TrEMBL) Secondary ID(s) of Target Chain>


> <UniProt (TrEMBL) Alternative ID(s) of Target Chain>


$$$$
00313001.cdx
  Mrv0541 06272400352D          

 31 35  0  0  0  0            999 V2000
   -4.9524    0.4125    0.0000 C   0  0  0  0  0  0  0  0  0  0  0  0
   -4.1274    0.4125    0.0000 C   0  0  0  0  0  0  0  0  0  0  0  0
   -4.5399   -0.3020    0.0000 C   0  0  0  0  0  0  0  0  0  0  0  0
   -4.5399    1.1270    0.0000 C   0  0  0  0  0  0  0  0  0  0  0  0
   -3.3024    0.4125    0.0000 C   0  0  0  0  0  0  0  0  0  0  0  0
   -2.8175    1.0799    0.0000 N   0  0  0  0  0  0  0  0  0  0  0  0
   -2.8175   -0.2549    0.0000 S   0  0  0  0  0  0  0  0  0  0  0  0
   -0.6039    0.0000    0.0000 C   0  0  0  0  0  0  0  0  0  0  0  0
   -0.6039   -0.8250    0.0000 C   0  0  0  0  0  0  0  0  0  0  0  0
    0.1105   -1.2375    0.0000 C   0  0  0  0  0  0  0  0  0  0  0  0
   -1.3184   -0.4125    0.0000 C   0  0  0  0  0  0  0  0  0  0  0  0
   -2.0329    0.0000    0.0000 C   0  0  0  0  0  0  0  0  0  0  0  0
   -2.0329    0.8250    0.0000 C   0  0  0  0  0  0  0  0  0  0  0  0
   -1.3184    1.2375    0.0000 C   0  0  0  0  0  0  0  0  0  0  0  0
   -1.3184    2.0625    0.0000 O   0  0  0  0  0  0  0  0  0  0  0  0
   -0.6039    0.8250    0.0000 C   0  0  0  0  0  0  0  0  0  0  0  0
    0.1105    0.4125    0.0000 C   0  0  0  0  0  0  0  0  0  0  0  0
    0.8250    0.0000    0.0000 C   0  0  0  0  0  0  0  0  0  0  0  0
    0.8250   -0.8250    0.0000 N   0  0  0  0  0  0  0  0  0  0  0  0
    1.5395   -1.2375    0.0000 C   0  0  0  0  0  0  0  0  0  0  0  0
    1.5395   -2.0625    0.0000 O   0  0  0  0  0  0  0  0  0  0  0  0
    2.2539   -0.8250    0.0000 C   0  0  0  0  0  0  0  0  0  0  0  0
    2.2539    0.0000    0.0000 C   0  0  0  0  0  0  0  0  0  0  0  0
    2.9684    0.4125    0.0000 C   0  0  0  0  0  0  0  0  0  0  0  0
    2.9684    1.2375    0.0000 Cl  0  0  0  0  0  0  0  0  0  0  0  0
    3.6829    0.0000    0.0000 C   0  0  0  0  0  0  0  0  0  0  0  0
    4.4675    0.2549    0.0000 C   0  0  0  0  0  0  0  0  0  0  0  0
    4.9524   -0.4125    0.0000 C   0  0  0  0  0  0  0  0  0  0  0  0
    4.4675   -1.0799    0.0000 N   0  0  0  0  0  0  0  0  0  0  0  0
    3.6829   -0.8250    0.0000 C   0  0  0  0  0  0  0  0  0  0  0  0
    2.9684   -1.2375    0.0000 C   0  0  0  0  0  0  0  0  0  0  0  0
  1  2  1  0  0  0  0
  2  3  1  0  0  0  0
  2  4  1  0  0  0  0
  2  5  1  0  0  0  0
  5  6  4  0  0  0  0
  5  7  4  0  0  0  0
  6 13  4  0  0  0  0
  7 12  4  0  0  0  0
  8  9  1  0  0  0  0
  8 11  1  0  0  0  0
  8 16  1  0  0  0  0
  8 17  1  0  0  0  0
  9 10  1  0  0  0  0
 10 19  1  0  0  0  0
 11 12  1  0  0  0  0
 12 13  4  0  0  0  0
 13 14  1  0  0  0  0
 14 15  2  0  0  0  0
 14 16  1  0  0  0  0
 17 18  1  0  0  0  0
 18 19  1  0  0  0  0
 19 20  1  0  0  0  0
 20 21  2  0  0  0  0
 20 22  1  0  0  0  0
 22 23  4  0  0  0  0
 22 31  4  0  0  0  0
 23 24  4  0  0  0  0
 24 25  1  0  0  0  0
 24 26  4  0  0  0  0
 26 27  4  0  0  0  0
 26 30  4  0  0  0  0
 27 28  4  0  0  0  0
 28 29  4  0  0  0  0
 29 30  4  0  0  0  0
 30 31  4  0  0  0  0
M  STY  1   1 DAT
M  SAL   1  1  29
M  SDT   1 MRV_IMPLICIT_H                                        
M  SDD   1     0.0000    0.0000    DR    ALL  0       0  
M  SED   1 IMPL_H1
M  END
> <From>
www.bindingDB.org

> <BindingDB Reactant_set_id>
1397275

> <Ligand InChI>
InChI=1S/C24H26ClN3O2S/c1-23(2,3)22-27-20-18(29)12-24(13-19(20)31-22)5-8-28(9-6-24)21(30)14-10-16(25)15-4-7-26-17(15)11-14/h4,7,10-11,26H,5-6,8-9,12-13H2,1-3H3

> <Ligand InChI Key>
KLWUBWMTMSHODY-UHFFFAOYSA-N

> <BindingDB MonomerID>
663893

> <BindingDB Ligand Name>
US20240109915, Example 78

> <Target Name>
Activating signal cointegrator 1 complex subunit 1

> <Target Source Organism According to Curator or DataSource>


> <Ki (nM)>


> <IC50 (nM)>
 7.60

> <Kd (nM)>


> <EC50 (nM)>


> <kon (M-1-s-1)>


> <koff (s-1)>


> <pH>


> <Temp C>


> <Curation/DataSource>
US Patent

> <Article DOI>


> <BindingDB Entry DOI>
10.7270/Q2348QQ2

> <PMID>


> <PubChem AID>


> <Patent Number>
US20240109915

> <Authors>
Bagley, SW; Bootsma, AN; Choi, C; Dow, RL; Edmonds, DJ; Garcia-Irizarry, CN; Gerstenberger, BS; Ingle, G; O''Brien, JG; Parikh, MD; Rescourio, GC; Schmitt, DC

> <Institution>
Pfizer

> <Link to Ligand in BindingDB>
http://www.bindingdb.org/bind/chemsearch/marvin/MolStructure.jsp?monomerid=663893

> <Link to Ligand-Target Pair in BindingDB>
http://www.bindingdb.org/jsp/dbsearch/PrimarySearch_ki.jsp?energyterm=kJ/mole&tag=pol&polymerid=735&target=Activating+signal+cointegrator+1+complex+subunit+1&column=ki&startPg=0&Increment=50&submit=Search

> <Link to Ligand-Target Pair in BindingDB>
http://www.bindingdb.org/jsp/dbsearch/PrimarySearch_ki.jsp?energyterm=kJ/mole&tag=r21&monomerid=663893&enzyme=Activating+signal+cointegrator+1+complex+subunit+1&column=ki&startPg=0&Increment=50&submit=Search

> <Ligand HET ID in PDB>


> <PDB ID(s) for Ligand-Target Complex>


> <PubChem CID>


> <PubChem SID>


> <ChEBI ID of Ligand>


> <ChEMBL ID of Ligand>


> <DrugBank ID of Ligand>


> <IUPHAR_GRAC ID of Ligand>


> <KEGG ID of Ligand>


> <ZINC ID of Ligand>


> <Number of Protein Chains in Target (bigger than 1 implies a multichain complex)>
1

> <BindingDB Target Chain Sequence>
MEVLRPQLIRIDGRNYRKNPVQEQTYQHEEDEEDFYQGSMECADEPCDAYEVEQTPQGFRSTLRAPSLLYNLIHLNTSNDCGFQKITLDCQNIYTWKSRHIVGKRGDTRKKIEMETKTSISIPKPGQDGEIVITGQHRNGVISARTRIDVLLDTFRRKQPFTHFLAFFLNEVEVQEGFLRFQEEVLAKCSMDHGVDSSIFQNPKKLHLTIGMLVLLSEEEIQQTCEMLQQCKEEFINDISGGKPLEVEMAGIEYMNDDPGMVDVLYAKVHMKDGSNRLQELVDRVLERFQASGLIVKEWNSVKLHATVMNTLFRKDPNAEGRYNLYTAEGKYIFKERESFDGRNILKSFALLPRLEYNDAISAHCNLCLPGSSDSPASASQVAGITGVSDAYSQSLPGKS

> <PDB ID(s) of Target Chain>


> <UniProt (SwissProt) Recommended Name of Target Chain>
Activating signal cointegrator 1 complex subunit 1

> <UniProt (SwissProt) Entry Name of Target Chain>
ASCC1_HUMAN

> <UniProt (SwissProt) Primary ID of Target Chain>
Q8N9N2

> <UniProt (SwissProt) Secondary ID(s) of Target Chain>
Q5SW06 Q5SW07 Q96EI8 Q9Y307

> <UniProt (SwissProt) Alternative ID(s) of Target Chain>


> <UniProt (TrEMBL) Submitted Name of Target Chain>


> <UniProt (TrEMBL) Entry Name of Target Chain>


> <UniProt (TrEMBL) Primary ID of Target Chain>


> <UniProt (TrEMBL) Secondary ID(s) of Target Chain>


> <UniProt (TrEMBL) Alternative ID(s) of Target Chain>


$$$$
00238001.cdx
  Mrv0541 06272400352D          

 34 38  0  0  0  0            999 V2000
   -1.8266    0.8250    0.0000 C   0  0  0  0  0  0  0  0  0  0  0  0
   -1.8266    0.0000    0.0000 C   0  0  0  0  0  0  0  0  0  0  0  0
   -1.1122   -0.4125    0.0000 C   0  0  0  0  0  0  0  0  0  0  0  0
   -0.3977    0.0000    0.0000 C   0  0  0  0  0  0  0  0  0  0  0  0
   -0.3977    0.8250    0.0000 C   0  0  0  0  0  0  0  0  0  0  0  0
   -1.1122    1.2375    0.0000 C   0  0  0  0  0  0  0  0  0  0  0  0
   -0.3977   -0.8250    0.0000 C   0  0  0  0  0  0  0  0  0  0  0  0
    0.3168   -1.2375    0.0000 C   0  0  0  0  0  0  0  0  0  0  0  0
    1.0313   -0.8250    0.0000 N   0  0  0  0  0  0  0  0  0  0  0  0
    1.0313    0.0000    0.0000 C   0  0  0  0  0  0  0  0  0  0  0  0
    0.3168    0.4125    0.0000 C   0  0  0  0  0  0  0  0  0  0  0  0
    1.7457   -1.2375    0.0000 C   0  0  0  0  0  0  0  0  0  0  0  0
    2.4602   -0.8250    0.0000 C   0  0  0  0  0  0  0  0  0  0  0  0
    1.7457   -2.0625    0.0000 O   0  0  0  0  0  0  0  0  0  0  0  0
    3.1747   -1.2375    0.0000 C   0  0  0  0  0  0  0  0  0  0  0  0
    3.8891   -0.8250    0.0000 C   0  0  0  0  0  0  0  0  0  0  0  0
    3.8891    0.0000    0.0000 C   0  0  0  0  0  0  0  0  0  0  0  0
    3.1747    0.4125    0.0000 C   0  0  0  0  0  0  0  0  0  0  0  0
    2.4602    0.0000    0.0000 C   0  0  0  0  0  0  0  0  0  0  0  0
    4.6738   -1.0799    0.0000 C   0  0  0  0  0  0  0  0  0  0  0  0
    5.1587   -0.4125    0.0000 N   0  0  0  0  0  0  0  0  0  0  0  0
    4.6738    0.2549    0.0000 N   0  0  0  0  0  0  0  0  0  0  0  0
    3.1747    1.2375    0.0000 C   0  0  0  0  0  0  0  0  0  0  0  0
    4.9287   -1.8646    0.0000 C   0  0  0  0  0  0  0  0  0  0  0  0
   -1.1122    2.0625    0.0000 O   0  0  0  0  0  0  0  0  0  0  0  0
   -2.6113    1.0799    0.0000 N   0  0  0  0  0  0  0  0  0  0  0  0
   -3.0962    0.4125    0.0000 C   0  0  0  0  0  0  0  0  0  0  0  0
   -2.6113   -0.2549    0.0000 S   0  0  0  0  0  0  0  0  0  0  0  0
   -3.9212    0.4125    0.0000 C   0  0  0  0  0  0  0  0  0  0  0  0
   -4.3337   -0.3020    0.0000 C   0  0  0  0  0  0  0  0  0  0  0  0
   -3.9212    1.2375    0.0000 C   0  0  0  0  0  0  0  0  0  0  0  0
   -4.6356    0.8250    0.0000 C   0  0  0  0  0  0  0  0  0  0  0  0
   -3.9212   -1.0164    0.0000 C   0  0  0  0  0  0  0  0  0  0  0  0
   -5.1587   -0.3020    0.0000 C   0  0  0  0  0  0  0  0  0  0  0  0
  1  2  4  0  0  0  0
  2  3  1  0  0  0  0
  3  4  1  0  0  0  0
  4  5  1  0  0  0  0
  5  6  1  0  0  0  0
  6  1  1  0  0  0  0
  4  7  1  0  0  0  0
  7  8  1  0  0  0  0
  8  9  1  0  0  0  0
  9 10  1  0  0  0  0
 10 11  1  0  0  0  0
 11  4  1  0  0  0  0
  9 12  1  0  0  0  0
 12 13  1  0  0  0  0
 12 14  2  0  0  0  0
 13 15  4  0  0  0  0
 15 16  4  0  0  0  0
 16 17  4  0  0  0  0
 17 18  4  0  0  0  0
 18 19  4  0  0  0  0
 19 13  4  0  0  0  0
 16 20  4  0  0  0  0
 20 21  4  0  0  0  0
 21 22  4  0  0  0  0
 22 17  4  0  0  0  0
 18 23  1  0  0  0  0
 20 24  1  0  0  0  0
  6 25  2  0  0  0  0
  1 26  4  0  0  0  0
 26 27  4  0  0  0  0
 27 28  4  0  0  0  0
 28  2  4  0  0  0  0
 27 29  1  0  0  0  0
 29 30  1  0  0  0  0
 29 31  1  0  0  0  0
 29 32  1  0  0  0  0
 30 33  1  0  0  0  0
 30 34  1  0  0  0  0
M  STY  1   1 DAT
M  SAL   1  1  22
M  SDT   1 MRV_IMPLICIT_H                                        
M  SDD   1     0.0000    0.0000    DR    ALL  0       0  
M  SED   1 IMPL_H1
M  END
> <From>
www.bindingDB.org

> <BindingDB Reactant_set_id>
1397206

> <Ligand InChI>
InChI=1S/C27H34N4O2S/c1-15(2)26(5,6)25-28-23-20(32)13-27(14-21(23)34-25)7-9-31(10-8-27)24(33)18-11-16(3)22-19(12-18)17(4)29-30-22/h11-12,15H,7-10,13-14H2,1-6H3,(H,29,30)

> <Ligand InChI Key>
JDQMLWKAKHECQM-UHFFFAOYSA-N

> <BindingDB MonomerID>
663824

> <BindingDB Ligand Name>
US20240109915, Example 3

> <Target Name>
Activating signal cointegrator 1 complex subunit 1

> <Target Source Organism According to Curator or DataSource>


> <Ki (nM)>


> <IC50 (nM)>
 7.90

> <Kd (nM)>


> <EC50 (nM)>


> <kon (M-1-s-1)>


> <koff (s-1)>


> <pH>


> <Temp C>


> <Curation/DataSource>
US Patent

> <Article DOI>


> <BindingDB Entry DOI>
10.7270/Q2348QQ2

> <PMID>


> <PubChem AID>


> <Patent Number>
US20240109915

> <Authors>
Bagley, SW; Bootsma, AN; Choi, C; Dow, RL; Edmonds, DJ; Garcia-Irizarry, CN; Gerstenberger, BS; Ingle, G; O''Brien, JG; Parikh, MD; Rescourio, GC; Schmitt, DC

> <Institution>
Pfizer

> <Link to Ligand in BindingDB>
http://www.bindingdb.org/bind/chemsearch/marvin/MolStructure.jsp?monomerid=663824

> <Link to Ligand-Target Pair in BindingDB>
http://www.bindingdb.org/jsp/dbsearch/PrimarySearch_ki.jsp?energyterm=kJ/mole&tag=pol&polymerid=735&target=Activating+signal+cointegrator+1+complex+subunit+1&column=ki&startPg=0&Increment=50&submit=Search

> <Link to Ligand-Target Pair in BindingDB>
http://www.bindingdb.org/jsp/dbsearch/PrimarySearch_ki.jsp?energyterm=kJ/mole&tag=r21&monomerid=663824&enzyme=Activating+signal+cointegrator+1+complex+subunit+1&column=ki&startPg=0&Increment=50&submit=Search

> <Ligand HET ID in PDB>


> <PDB ID(s) for Ligand-Target Complex>


> <PubChem CID>


> <PubChem SID>


> <ChEBI ID of Ligand>


> <ChEMBL ID of Ligand>


> <DrugBank ID of Ligand>


> <IUPHAR_GRAC ID of Ligand>


> <KEGG ID of Ligand>


> <ZINC ID of Ligand>


> <Number of Protein Chains in Target (bigger than 1 implies a multichain complex)>
1

> <BindingDB Target Chain Sequence>
MEVLRPQLIRIDGRNYRKNPVQEQTYQHEEDEEDFYQGSMECADEPCDAYEVEQTPQGFRSTLRAPSLLYNLIHLNTSNDCGFQKITLDCQNIYTWKSRHIVGKRGDTRKKIEMETKTSISIPKPGQDGEIVITGQHRNGVISARTRIDVLLDTFRRKQPFTHFLAFFLNEVEVQEGFLRFQEEVLAKCSMDHGVDSSIFQNPKKLHLTIGMLVLLSEEEIQQTCEMLQQCKEEFINDISGGKPLEVEMAGIEYMNDDPGMVDVLYAKVHMKDGSNRLQELVDRVLERFQASGLIVKEWNSVKLHATVMNTLFRKDPNAEGRYNLYTAEGKYIFKERESFDGRNILKSFALLPRLEYNDAISAHCNLCLPGSSDSPASASQVAGITGVSDAYSQSLPGKS

> <PDB ID(s) of Target Chain>


> <UniProt (SwissProt) Recommended Name of Target Chain>
Activating signal cointegrator 1 complex subunit 1

> <UniProt (SwissProt) Entry Name of Target Chain>
ASCC1_HUMAN

> <UniProt (SwissProt) Primary ID of Target Chain>
Q8N9N2

> <UniProt (SwissProt) Secondary ID(s) of Target Chain>
Q5SW06 Q5SW07 Q96EI8 Q9Y307

> <UniProt (SwissProt) Alternative ID(s) of Target Chain>


> <UniProt (TrEMBL) Submitted Name of Target Chain>


> <UniProt (TrEMBL) Entry Name of Target Chain>


> <UniProt (TrEMBL) Primary ID of Target Chain>


> <UniProt (TrEMBL) Secondary ID(s) of Target Chain>


> <UniProt (TrEMBL) Alternative ID(s) of Target Chain>


$$$$
00294001.cdx
  Mrv0541 06272400352D          

 32 36  0  0  0  0            999 V2000
   -4.9524    0.4125    0.0000 C   0  0  0  0  0  0  0  0  0  0  0  0
   -4.1274    0.4125    0.0000 C   0  0  0  0  0  0  0  0  0  0  0  0
   -4.5399   -0.3020    0.0000 C   0  0  0  0  0  0  0  0  0  0  0  0
   -4.5399    1.1270    0.0000 C   0  0  0  0  0  0  0  0  0  0  0  0
   -3.3024    0.4125    0.0000 C   0  0  0  0  0  0  0  0  0  0  0  0
   -2.8175    1.0799    0.0000 N   0  0  0  0  0  0  0  0  0  0  0  0
   -2.8175   -0.2549    0.0000 S   0  0  0  0  0  0  0  0  0  0  0  0
   -0.6039    0.0000    0.0000 C   0  0  0  0  0  0  0  0  0  0  0  0
   -0.6039   -0.8250    0.0000 C   0  0  0  0  0  0  0  0  0  0  0  0
    0.1105   -1.2375    0.0000 C   0  0  0  0  0  0  0  0  0  0  0  0
   -1.3184   -0.4125    0.0000 C   0  0  0  0  0  0  0  0  0  0  0  0
   -2.0329    0.0000    0.0000 C   0  0  0  0  0  0  0  0  0  0  0  0
   -2.0329    0.8250    0.0000 C   0  0  0  0  0  0  0  0  0  0  0  0
   -1.3184    1.2375    0.0000 C   0  0  0  0  0  0  0  0  0  0  0  0
   -1.3184    2.0625    0.0000 O   0  0  0  0  0  0  0  0  0  0  0  0
   -0.6039    0.8250    0.0000 C   0  0  0  0  0  0  0  0  0  0  0  0
    0.1105    0.4125    0.0000 C   0  0  0  0  0  0  0  0  0  0  0  0
    0.8250    0.0000    0.0000 C   0  0  0  0  0  0  0  0  0  0  0  0
    0.8250   -0.8250    0.0000 N   0  0  0  0  0  0  0  0  0  0  0  0
    1.5395   -1.2375    0.0000 C   0  0  0  0  0  0  0  0  0  0  0  0
    1.5395   -2.0625    0.0000 O   0  0  0  0  0  0  0  0  0  0  0  0
    2.2539   -0.8250    0.0000 C   0  0  0  0  0  0  0  0  0  0  0  0
    2.2539    0.0000    0.0000 C   0  0  0  0  0  0  0  0  0  0  0  0
    2.9684    0.4125    0.0000 C   0  0  0  0  0  0  0  0  0  0  0  0
    3.6829    0.0000    0.0000 C   0  0  0  0  0  0  0  0  0  0  0  0
    3.6829   -0.8250    0.0000 C   0  0  0  0  0  0  0  0  0  0  0  0
    2.9684   -1.2375    0.0000 C   0  0  0  0  0  0  0  0  0  0  0  0
    4.4675   -1.0799    0.0000 N   0  0  0  0  0  0  0  0  0  0  0  0
    4.9524   -0.4125    0.0000 C   0  0  0  0  0  0  0  0  0  0  0  0
    4.4675    0.2549    0.0000 C   0  0  0  0  0  0  0  0  0  0  0  0
    2.9684    1.2375    0.0000 C   0  0  0  0  0  0  0  0  0  0  0  0
    2.9684    2.0625    0.0000 N   0  0  0  0  0  0  0  0  0  0  0  0
  1  2  1  0  0  0  0
  2  3  1  0  0  0  0
  2  4  1  0  0  0  0
  2  5  1  0  0  0  0
  5  6  4  0  0  0  0
  5  7  4  0  0  0  0
  6 13  4  0  0  0  0
  7 12  4  0  0  0  0
  8  9  1  0  0  0  0
  8 11  1  0  0  0  0
  8 16  1  0  0  0  0
  8 17  1  0  0  0  0
  9 10  1  0  0  0  0
 10 19  1  0  0  0  0
 11 12  1  0  0  0  0
 12 13  4  0  0  0  0
 13 14  1  0  0  0  0
 14 15  2  0  0  0  0
 14 16  1  0  0  0  0
 17 18  1  0  0  0  0
 18 19  1  0  0  0  0
 19 20  1  0  0  0  0
 20 21  2  0  0  0  0
 20 22  1  0  0  0  0
 22 23  4  0  0  0  0
 22 27  4  0  0  0  0
 23 24  4  0  0  0  0
 24 25  4  0  0  0  0
 25 26  4  0  0  0  0
 26 27  4  0  0  0  0
 26 28  4  0  0  0  0
 28 29  4  0  0  0  0
 29 30  4  0  0  0  0
 30 25  4  0  0  0  0
 24 31  1  0  0  0  0
 31 32  3  0  0  0  0
M  STY  1   1 DAT
M  SAL   1  1  28
M  SDT   1 MRV_IMPLICIT_H                                        
M  SDD   1     0.0000    0.0000    DR    ALL  0       0  
M  SED   1 IMPL_H1
M  END
> <From>
www.bindingDB.org

> <BindingDB Reactant_set_id>
1397257

> <Ligand InChI>
InChI=1S/C25H26N4O2S/c1-24(2,3)23-28-21-19(30)12-25(13-20(21)32-23)5-8-29(9-6-25)22(31)15-10-16(14-26)17-4-7-27-18(17)11-15/h4,7,10-11,27H,5-6,8-9,12-13H2,1-3H3

> <Ligand InChI Key>
QWSWYGREKGETSQ-UHFFFAOYSA-N

> <BindingDB MonomerID>
663875

> <BindingDB Ligand Name>
US20240109915, Example 59

> <Target Name>
Activating signal cointegrator 1 complex subunit 1

> <Target Source Organism According to Curator or DataSource>


> <Ki (nM)>


> <IC50 (nM)>
 8.00

> <Kd (nM)>


> <EC50 (nM)>


> <kon (M-1-s-1)>


> <koff (s-1)>


> <pH>


> <Temp C>


> <Curation/DataSource>
US Patent

> <Article DOI>


> <BindingDB Entry DOI>
10.7270/Q2348QQ2

> <PMID>


> <PubChem AID>


> <Patent Number>
US20240109915

> <Authors>
Bagley, SW; Bootsma, AN; Choi, C; Dow, RL; Edmonds, DJ; Garcia-Irizarry, CN; Gerstenberger, BS; Ingle, G; O''Brien, JG; Parikh, MD; Rescourio, GC; Schmitt, DC

> <Institution>
Pfizer

> <Link to Ligand in BindingDB>
http://www.bindingdb.org/bind/chemsearch/marvin/MolStructure.jsp?monomerid=663875

> <Link to Ligand-Target Pair in BindingDB>
http://www.bindingdb.org/jsp/dbsearch/PrimarySearch_ki.jsp?energyterm=kJ/mole&tag=pol&polymerid=735&target=Activating+signal+cointegrator+1+complex+subunit+1&column=ki&startPg=0&Increment=50&submit=Search

> <Link to Ligand-Target Pair in BindingDB>
http://www.bindingdb.org/jsp/dbsearch/PrimarySearch_ki.jsp?energyterm=kJ/mole&tag=r21&monomerid=663875&enzyme=Activating+signal+cointegrator+1+complex+subunit+1&column=ki&startPg=0&Increment=50&submit=Search

> <Ligand HET ID in PDB>


> <PDB ID(s) for Ligand-Target Complex>


> <PubChem CID>


> <PubChem SID>


> <ChEBI ID of Ligand>


> <ChEMBL ID of Ligand>


> <DrugBank ID of Ligand>


> <IUPHAR_GRAC ID of Ligand>


> <KEGG ID of Ligand>


> <ZINC ID of Ligand>


> <Number of Protein Chains in Target (bigger than 1 implies a multichain complex)>
1

> <BindingDB Target Chain Sequence>
MEVLRPQLIRIDGRNYRKNPVQEQTYQHEEDEEDFYQGSMECADEPCDAYEVEQTPQGFRSTLRAPSLLYNLIHLNTSNDCGFQKITLDCQNIYTWKSRHIVGKRGDTRKKIEMETKTSISIPKPGQDGEIVITGQHRNGVISARTRIDVLLDTFRRKQPFTHFLAFFLNEVEVQEGFLRFQEEVLAKCSMDHGVDSSIFQNPKKLHLTIGMLVLLSEEEIQQTCEMLQQCKEEFINDISGGKPLEVEMAGIEYMNDDPGMVDVLYAKVHMKDGSNRLQELVDRVLERFQASGLIVKEWNSVKLHATVMNTLFRKDPNAEGRYNLYTAEGKYIFKERESFDGRNILKSFALLPRLEYNDAISAHCNLCLPGSSDSPASASQVAGITGVSDAYSQSLPGKS

> <PDB ID(s) of Target Chain>


> <UniProt (SwissProt) Recommended Name of Target Chain>
Activating signal cointegrator 1 complex subunit 1

> <UniProt (SwissProt) Entry Name of Target Chain>
ASCC1_HUMAN

> <UniProt (SwissProt) Primary ID of Target Chain>
Q8N9N2

> <UniProt (SwissProt) Secondary ID(s) of Target Chain>
Q5SW06 Q5SW07 Q96EI8 Q9Y307

> <UniProt (SwissProt) Alternative ID(s) of Target Chain>


> <UniProt (TrEMBL) Submitted Name of Target Chain>


> <UniProt (TrEMBL) Entry Name of Target Chain>


> <UniProt (TrEMBL) Primary ID of Target Chain>


> <UniProt (TrEMBL) Secondary ID(s) of Target Chain>


> <UniProt (TrEMBL) Alternative ID(s) of Target Chain>


$$$$
00333001.cdx
  Mrv0541 06272400352D          

 33 37  0  0  0  0            999 V2000
   -5.0321    0.4125    0.0000 C   0  0  0  0  0  0  0  0  0  0  0  0
   -4.2071    0.4125    0.0000 C   0  0  0  0  0  0  0  0  0  0  0  0
   -4.6196   -0.3020    0.0000 C   0  0  0  0  0  0  0  0  0  0  0  0
   -4.6196    1.1270    0.0000 C   0  0  0  0  0  0  0  0  0  0  0  0
   -3.3821    0.4125    0.0000 C   0  0  0  0  0  0  0  0  0  0  0  0
   -2.8972    1.0799    0.0000 N   0  0  0  0  0  0  0  0  0  0  0  0
   -2.8972   -0.2549    0.0000 S   0  0  0  0  0  0  0  0  0  0  0  0
   -0.6836    0.0000    0.0000 C   0  0  0  0  0  0  0  0  0  0  0  0
   -0.6836   -0.8250    0.0000 C   0  0  0  0  0  0  0  0  0  0  0  0
    0.0308   -1.2375    0.0000 C   0  0  0  0  0  0  0  0  0  0  0  0
   -1.3981   -0.4125    0.0000 C   0  0  0  0  0  0  0  0  0  0  0  0
   -2.1126    0.0000    0.0000 C   0  0  0  0  0  0  0  0  0  0  0  0
   -2.1126    0.8250    0.0000 C   0  0  0  0  0  0  0  0  0  0  0  0
   -1.3981    1.2375    0.0000 C   0  0  0  0  0  0  0  0  0  0  0  0
   -1.3981    2.0625    0.0000 O   0  0  0  0  0  0  0  0  0  0  0  0
   -0.6836    0.8250    0.0000 C   0  0  0  0  0  0  0  0  0  0  0  0
    0.0308    0.4125    0.0000 C   0  0  0  0  0  0  0  0  0  0  0  0
    0.7453    0.0000    0.0000 C   0  0  0  0  0  0  0  0  0  0  0  0
    0.7453   -0.8250    0.0000 N   0  0  0  0  0  0  0  0  0  0  0  0
    4.3177   -1.2375    0.0000 O   0  0  0  0  0  0  0  0  0  0  0  0
    5.0321   -0.8250    0.0000 C   0  0  0  0  0  0  0  0  0  0  0  0
    2.1742   -0.8250    0.0000 C   0  0  0  0  0  0  0  0  0  0  0  0
    1.4598   -1.2375    0.0000 C   0  0  0  0  0  0  0  0  0  0  0  0
    2.1742    0.0000    0.0000 C   0  0  0  0  0  0  0  0  0  0  0  0
    2.8887    0.4125    0.0000 C   0  0  0  0  0  0  0  0  0  0  0  0
    3.6032    0.0000    0.0000 C   0  0  0  0  0  0  0  0  0  0  0  0
    3.6032   -0.8250    0.0000 C   0  0  0  0  0  0  0  0  0  0  0  0
    2.8887   -1.2375    0.0000 C   0  0  0  0  0  0  0  0  0  0  0  0
    1.4598   -2.0625    0.0000 O   0  0  0  0  0  0  0  0  0  0  0  0
    2.7172    1.2195    0.0000 C   0  0  0  0  0  0  0  0  0  0  0  0
    1.8967    1.3057    0.0000 N   0  0  0  0  0  0  0  0  0  0  0  0
    1.5611    0.5520    0.0000 N   0  0  0  0  0  0  0  0  0  0  0  0
    3.2692    1.8326    0.0000 C   0  0  0  0  0  0  0  0  0  0  0  0
  1  2  1  0  0  0  0
  2  3  1  0  0  0  0
  2  4  1  0  0  0  0
  2  5  1  0  0  0  0
  5  6  4  0  0  0  0
  5  7  4  0  0  0  0
  6 13  4  0  0  0  0
  7 12  4  0  0  0  0
  8  9  1  0  0  0  0
  8 11  1  0  0  0  0
  8 16  1  0  0  0  0
  8 17  1  0  0  0  0
  9 10  1  0  0  0  0
 10 19  1  0  0  0  0
 11 12  1  0  0  0  0
 12 13  4  0  0  0  0
 13 14  1  0  0  0  0
 14 15  2  0  0  0  0
 14 16  1  0  0  0  0
 17 18  1  0  0  0  0
 18 19  1  0  0  0  0
 19 23  1  0  0  0  0
 20 21  1  0  0  0  0
 20 27  1  0  0  0  0
 22 23  1  0  0  0  0
 22 24  4  0  0  0  0
 22 28  4  0  0  0  0
 23 29  2  0  0  0  0
 24 25  4  0  0  0  0
 25 26  4  0  0  0  0
 26 27  4  0  0  0  0
 27 28  4  0  0  0  0
 25 30  4  0  0  0  0
 30 31  4  0  0  0  0
 31 32  4  0  0  0  0
 32 24  4  0  0  0  0
 30 33  1  0  0  0  0
M  STY  1   1 DAT
M  SAL   1  1  32
M  SDT   1 MRV_IMPLICIT_H                                        
M  SDD   1     0.0000    0.0000    DR    ALL  0       0  
M  SED   1 IMPL_H1
M  END
> <From>
www.bindingDB.org

> <BindingDB Reactant_set_id>
1397295

> <Ligand InChI>
InChI=1S/C25H30N4O3S/c1-14-16-10-15(32-5)11-17(20(16)28-27-14)22(31)29-8-6-25(7-9-29)12-18(30)21-19(13-25)33-23(26-21)24(2,3)4/h10-11H,6-9,12-13H2,1-5H3,(H,27,28)

> <Ligand InChI Key>
LDOCLGQLDBDYTF-UHFFFAOYSA-N

> <BindingDB MonomerID>
663913

> <BindingDB Ligand Name>
US20240109915, Example 98

> <Target Name>
Activating signal cointegrator 1 complex subunit 1

> <Target Source Organism According to Curator or DataSource>


> <Ki (nM)>


> <IC50 (nM)>
 8.60

> <Kd (nM)>


> <EC50 (nM)>


> <kon (M-1-s-1)>


> <koff (s-1)>


> <pH>


> <Temp C>


> <Curation/DataSource>
US Patent

> <Article DOI>


> <BindingDB Entry DOI>
10.7270/Q2348QQ2

> <PMID>


> <PubChem AID>


> <Patent Number>
US20240109915

> <Authors>
Bagley, SW; Bootsma, AN; Choi, C; Dow, RL; Edmonds, DJ; Garcia-Irizarry, CN; Gerstenberger, BS; Ingle, G; O''Brien, JG; Parikh, MD; Rescourio, GC; Schmitt, DC

> <Institution>
Pfizer

> <Link to Ligand in BindingDB>
http://www.bindingdb.org/bind/chemsearch/marvin/MolStructure.jsp?monomerid=663913

> <Link to Ligand-Target Pair in BindingDB>
http://www.bindingdb.org/jsp/dbsearch/PrimarySearch_ki.jsp?energyterm=kJ/mole&tag=pol&polymerid=735&target=Activating+signal+cointegrator+1+complex+subunit+1&column=ki&startPg=0&Increment=50&submit=Search

> <Link to Ligand-Target Pair in BindingDB>
http://www.bindingdb.org/jsp/dbsearch/PrimarySearch_ki.jsp?energyterm=kJ/mole&tag=r21&monomerid=663913&enzyme=Activating+signal+cointegrator+1+complex+subunit+1&column=ki&startPg=0&Increment=50&submit=Search

> <Ligand HET ID in PDB>


> <PDB ID(s) for Ligand-Target Complex>


> <PubChem CID>


> <PubChem SID>


> <ChEBI ID of Ligand>


> <ChEMBL ID of Ligand>


> <DrugBank ID of Ligand>


> <IUPHAR_GRAC ID of Ligand>


> <KEGG ID of Ligand>


> <ZINC ID of Ligand>


> <Number of Protein Chains in Target (bigger than 1 implies a multichain complex)>
1

> <BindingDB Target Chain Sequence>
MEVLRPQLIRIDGRNYRKNPVQEQTYQHEEDEEDFYQGSMECADEPCDAYEVEQTPQGFRSTLRAPSLLYNLIHLNTSNDCGFQKITLDCQNIYTWKSRHIVGKRGDTRKKIEMETKTSISIPKPGQDGEIVITGQHRNGVISARTRIDVLLDTFRRKQPFTHFLAFFLNEVEVQEGFLRFQEEVLAKCSMDHGVDSSIFQNPKKLHLTIGMLVLLSEEEIQQTCEMLQQCKEEFINDISGGKPLEVEMAGIEYMNDDPGMVDVLYAKVHMKDGSNRLQELVDRVLERFQASGLIVKEWNSVKLHATVMNTLFRKDPNAEGRYNLYTAEGKYIFKERESFDGRNILKSFALLPRLEYNDAISAHCNLCLPGSSDSPASASQVAGITGVSDAYSQSLPGKS

> <PDB ID(s) of Target Chain>


> <UniProt (SwissProt) Recommended Name of Target Chain>
Activating signal cointegrator 1 complex subunit 1

> <UniProt (SwissProt) Entry Name of Target Chain>
ASCC1_HUMAN

> <UniProt (SwissProt) Primary ID of Target Chain>
Q8N9N2

> <UniProt (SwissProt) Secondary ID(s) of Target Chain>
Q5SW06 Q5SW07 Q96EI8 Q9Y307

> <UniProt (SwissProt) Alternative ID(s) of Target Chain>


> <UniProt (TrEMBL) Submitted Name of Target Chain>


> <UniProt (TrEMBL) Entry Name of Target Chain>


> <UniProt (TrEMBL) Primary ID of Target Chain>


> <UniProt (TrEMBL) Secondary ID(s) of Target Chain>


> <UniProt (TrEMBL) Alternative ID(s) of Target Chain>


$$$$
00312001.cdx
  Mrv0541 06272400352D          

 35 39  0  0  0  0            999 V2000
   -5.7466    0.4125    0.0000 C   0  0  0  0  0  0  0  0  0  0  0  0
   -4.9216    0.4125    0.0000 C   0  0  0  0  0  0  0  0  0  0  0  0
   -5.3341   -0.3020    0.0000 C   0  0  0  0  0  0  0  0  0  0  0  0
   -5.3341    1.1270    0.0000 C   0  0  0  0  0  0  0  0  0  0  0  0
   -4.0966    0.4125    0.0000 C   0  0  0  0  0  0  0  0  0  0  0  0
   -3.6117    1.0799    0.0000 N   0  0  0  0  0  0  0  0  0  0  0  0
   -3.6117   -0.2549    0.0000 S   0  0  0  0  0  0  0  0  0  0  0  0
   -1.3981    0.0000    0.0000 C   0  0  0  0  0  0  0  0  0  0  0  0
   -1.3981   -0.8250    0.0000 C   0  0  0  0  0  0  0  0  0  0  0  0
   -0.6836   -1.2375    0.0000 C   0  0  0  0  0  0  0  0  0  0  0  0
   -2.1126   -0.4125    0.0000 C   0  0  0  0  0  0  0  0  0  0  0  0
   -2.8271    0.0000    0.0000 C   0  0  0  0  0  0  0  0  0  0  0  0
   -2.8271    0.8250    0.0000 C   0  0  0  0  0  0  0  0  0  0  0  0
   -2.1126    1.2375    0.0000 C   0  0  0  0  0  0  0  0  0  0  0  0
   -2.1126    2.0625    0.0000 O   0  0  0  0  0  0  0  0  0  0  0  0
   -1.3981    0.8250    0.0000 C   0  0  0  0  0  0  0  0  0  0  0  0
   -0.6836    0.4125    0.0000 C   0  0  0  0  0  0  0  0  0  0  0  0
    0.0308    0.0000    0.0000 C   0  0  0  0  0  0  0  0  0  0  0  0
    0.0308   -0.8250    0.0000 N   0  0  0  0  0  0  0  0  0  0  0  0
    5.0321   -1.2375    0.0000 O   0  0  0  0  0  0  0  0  0  0  0  0
    5.7466   -0.8250    0.0000 C   0  0  0  0  0  0  0  0  0  0  0  0
    0.7453    0.4125    0.0000 N   0  0  0  0  0  0  0  0  0  0  0  0
    0.7453    1.2375    0.0000 C   0  0  0  0  0  0  0  0  0  0  0  0
    0.7453   -1.2375    0.0000 C   0  0  0  0  0  0  0  0  0  0  0  0
    0.7453   -2.0625    0.0000 O   0  0  0  0  0  0  0  0  0  0  0  0
    1.4598   -0.8250    0.0000 C   0  0  0  0  0  0  0  0  0  0  0  0
    1.4598    0.0000    0.0000 C   0  0  0  0  0  0  0  0  0  0  0  0
    2.1742    0.4125    0.0000 N   0  0  0  0  0  0  0  0  0  0  0  0
    2.1742   -1.2375    0.0000 C   0  0  0  0  0  0  0  0  0  0  0  0
    2.8887   -0.8250    0.0000 C   0  0  0  0  0  0  0  0  0  0  0  0
    2.8887    0.0000    0.0000 C   0  0  0  0  0  0  0  0  0  0  0  0
    3.6032    0.4125    0.0000 C   0  0  0  0  0  0  0  0  0  0  0  0
    4.3177    0.0000    0.0000 C   0  0  0  0  0  0  0  0  0  0  0  0
    4.3177   -0.8250    0.0000 C   0  0  0  0  0  0  0  0  0  0  0  0
    3.6032   -1.2375    0.0000 C   0  0  0  0  0  0  0  0  0  0  0  0
  1  2  1  0  0  0  0
  2  3  1  0  0  0  0
  2  4  1  0  0  0  0
  2  5  1  0  0  0  0
  5  6  4  0  0  0  0
  5  7  4  0  0  0  0
  6 13  4  0  0  0  0
  7 12  4  0  0  0  0
  8  9  1  0  0  0  0
  8 11  1  0  0  0  0
  8 16  1  0  0  0  0
  8 17  1  0  0  0  0
  9 10  1  0  0  0  0
 10 19  1  0  0  0  0
 11 12  1  0  0  0  0
 12 13  4  0  0  0  0
 13 14  1  0  0  0  0
 14 15  2  0  0  0  0
 14 16  1  0  0  0  0
 17 18  1  0  0  0  0
 18 19  1  0  0  0  0
 19 24  1  0  0  0  0
 20 21  1  0  0  0  0
 20 34  1  0  0  0  0
 22 23  1  0  0  0  0
 22 27  1  0  0  0  0
 24 25  2  0  0  0  0
 24 26  1  0  0  0  0
 26 27  4  0  0  0  0
 26 29  4  0  0  0  0
 27 28  4  0  0  0  0
 28 31  4  0  0  0  0
 29 30  4  0  0  0  0
 30 31  4  0  0  0  0
 30 35  4  0  0  0  0
 31 32  4  0  0  0  0
 32 33  4  0  0  0  0
 33 34  4  0  0  0  0
 34 35  4  0  0  0  0
M  END
> <From>
www.bindingDB.org

> <BindingDB Reactant_set_id>
1397274

> <Ligand InChI>
InChI=1S/C27H32N4O3S/c1-26(2,3)25-30-22-20(32)14-27(15-21(22)35-25)8-10-31(11-9-27)24(33)18-13-16-12-17(34-5)6-7-19(16)29-23(18)28-4/h6-7,12-13H,8-11,14-15H2,1-5H3,(H,28,29)

> <Ligand InChI Key>
BQBCHFKCYFRAAR-UHFFFAOYSA-N

> <BindingDB MonomerID>
663892

> <BindingDB Ligand Name>
US20240109915, Example 77

> <Target Name>
Activating signal cointegrator 1 complex subunit 1

> <Target Source Organism According to Curator or DataSource>


> <Ki (nM)>


> <IC50 (nM)>
 9.40

> <Kd (nM)>


> <EC50 (nM)>


> <kon (M-1-s-1)>


> <koff (s-1)>


> <pH>


> <Temp C>


> <Curation/DataSource>
US Patent

> <Article DOI>


> <BindingDB Entry DOI>
10.7270/Q2348QQ2

> <PMID>


> <PubChem AID>


> <Patent Number>
US20240109915

> <Authors>
Bagley, SW; Bootsma, AN; Choi, C; Dow, RL; Edmonds, DJ; Garcia-Irizarry, CN; Gerstenberger, BS; Ingle, G; O''Brien, JG; Parikh, MD; Rescourio, GC; Schmitt, DC

> <Institution>
Pfizer

> <Link to Ligand in BindingDB>
http://www.bindingdb.org/bind/chemsearch/marvin/MolStructure.jsp?monomerid=663892

> <Link to Ligand-Target Pair in BindingDB>
http://www.bindingdb.org/jsp/dbsearch/PrimarySearch_ki.jsp?energyterm=kJ/mole&tag=pol&polymerid=735&target=Activating+signal+cointegrator+1+complex+subunit+1&column=ki&startPg=0&Increment=50&submit=Search

> <Link to Ligand-Target Pair in BindingDB>
http://www.bindingdb.org/jsp/dbsearch/PrimarySearch_ki.jsp?energyterm=kJ/mole&tag=r21&monomerid=663892&enzyme=Activating+signal+cointegrator+1+complex+subunit+1&column=ki&startPg=0&Increment=50&submit=Search

> <Ligand HET ID in PDB>


> <PDB ID(s) for Ligand-Target Complex>


> <PubChem CID>


> <PubChem SID>


> <ChEBI ID of Ligand>


> <ChEMBL ID of Ligand>


> <DrugBank ID of Ligand>


> <IUPHAR_GRAC ID of Ligand>


> <KEGG ID of Ligand>


> <ZINC ID of Ligand>


> <Number of Protein Chains in Target (bigger than 1 implies a multichain complex)>
1

> <BindingDB Target Chain Sequence>
MEVLRPQLIRIDGRNYRKNPVQEQTYQHEEDEEDFYQGSMECADEPCDAYEVEQTPQGFRSTLRAPSLLYNLIHLNTSNDCGFQKITLDCQNIYTWKSRHIVGKRGDTRKKIEMETKTSISIPKPGQDGEIVITGQHRNGVISARTRIDVLLDTFRRKQPFTHFLAFFLNEVEVQEGFLRFQEEVLAKCSMDHGVDSSIFQNPKKLHLTIGMLVLLSEEEIQQTCEMLQQCKEEFINDISGGKPLEVEMAGIEYMNDDPGMVDVLYAKVHMKDGSNRLQELVDRVLERFQASGLIVKEWNSVKLHATVMNTLFRKDPNAEGRYNLYTAEGKYIFKERESFDGRNILKSFALLPRLEYNDAISAHCNLCLPGSSDSPASASQVAGITGVSDAYSQSLPGKS

> <PDB ID(s) of Target Chain>


> <UniProt (SwissProt) Recommended Name of Target Chain>
Activating signal cointegrator 1 complex subunit 1

> <UniProt (SwissProt) Entry Name of Target Chain>
ASCC1_HUMAN

> <UniProt (SwissProt) Primary ID of Target Chain>
Q8N9N2

> <UniProt (SwissProt) Secondary ID(s) of Target Chain>
Q5SW06 Q5SW07 Q96EI8 Q9Y307

> <UniProt (SwissProt) Alternative ID(s) of Target Chain>


> <UniProt (TrEMBL) Submitted Name of Target Chain>


> <UniProt (TrEMBL) Entry Name of Target Chain>


> <UniProt (TrEMBL) Primary ID of Target Chain>


> <UniProt (TrEMBL) Secondary ID(s) of Target Chain>


> <UniProt (TrEMBL) Alternative ID(s) of Target Chain>


$$$$
00325001.cdx
  Mrv0541 06272400352D          

 31 35  0  0  0  0            999 V2000
   -3.0249    0.4125    0.0000 C   0  0  0  0  0  0  0  0  0  0  0  0
   -2.5400    1.0799    0.0000 N   0  0  0  0  0  0  0  0  0  0  0  0
   -3.8499    0.4125    0.0000 C   0  0  0  0  0  0  0  0  0  0  0  0
   -2.5400   -0.2549    0.0000 S   0  0  0  0  0  0  0  0  0  0  0  0
   -4.6749    0.4125    0.0000 C   0  0  0  0  0  0  0  0  0  0  0  0
   -4.2624    1.1270    0.0000 C   0  0  0  0  0  0  0  0  0  0  0  0
   -4.2624   -0.3020    0.0000 C   0  0  0  0  0  0  0  0  0  0  0  0
   -1.0409   -0.4125    0.0000 C   0  0  0  0  0  0  0  0  0  0  0  0
   -0.3264    0.0000    0.0000 C   0  0  0  0  0  0  0  0  0  0  0  0
   -0.3264   -0.8250    0.0000 C   0  0  0  0  0  0  0  0  0  0  0  0
   -1.7553    0.0000    0.0000 C   0  0  0  0  0  0  0  0  0  0  0  0
   -1.7553    0.8250    0.0000 C   0  0  0  0  0  0  0  0  0  0  0  0
   -1.0409    1.2375    0.0000 C   0  0  0  0  0  0  0  0  0  0  0  0
   -1.0409    2.0625    0.0000 O   0  0  0  0  0  0  0  0  0  0  0  0
   -0.3264    0.8250    0.0000 C   0  0  0  0  0  0  0  0  0  0  0  0
    0.3881    0.4125    0.0000 C   0  0  0  0  0  0  0  0  0  0  0  0
    1.1025    0.0000    0.0000 C   0  0  0  0  0  0  0  0  0  0  0  0
    1.1025   -0.8250    0.0000 N   0  0  0  0  0  0  0  0  0  0  0  0
    0.3881   -1.2375    0.0000 C   0  0  0  0  0  0  0  0  0  0  0  0
    3.2459   -1.2375    0.0000 C   0  0  0  0  0  0  0  0  0  0  0  0
    3.9604   -0.8250    0.0000 C   0  0  0  0  0  0  0  0  0  0  0  0
    3.9604    0.0000    0.0000 C   0  0  0  0  0  0  0  0  0  0  0  0
    4.6749   -1.2375    0.0000 Cl  0  0  0  0  0  0  0  0  0  0  0  0
    2.5315   -0.8250    0.0000 C   0  0  0  0  0  0  0  0  0  0  0  0
    1.8170   -1.2375    0.0000 C   0  0  0  0  0  0  0  0  0  0  0  0
    2.5315    0.0000    0.0000 C   0  0  0  0  0  0  0  0  0  0  0  0
    1.9184    0.5520    0.0000 N   0  0  0  0  0  0  0  0  0  0  0  0
    3.2459    0.4125    0.0000 C   0  0  0  0  0  0  0  0  0  0  0  0
    3.0744    1.2195    0.0000 C   0  0  0  0  0  0  0  0  0  0  0  0
    2.2539    1.3057    0.0000 C   0  0  0  0  0  0  0  0  0  0  0  0
    1.8170   -2.0625    0.0000 O   0  0  0  0  0  0  0  0  0  0  0  0
  1  2  4  0  0  0  0
  1  3  1  0  0  0  0
  1  4  4  0  0  0  0
  2 12  4  0  0  0  0
  3  5  1  0  0  0  0
  3  6  1  0  0  0  0
  3  7  1  0  0  0  0
  4 11  4  0  0  0  0
  8  9  1  0  0  0  0
  8 11  1  0  0  0  0
  9 10  1  0  0  0  0
  9 15  1  0  0  0  0
  9 16  1  0  0  0  0
 10 19  1  0  0  0  0
 11 12  4  0  0  0  0
 12 13  1  0  0  0  0
 13 14  2  0  0  0  0
 13 15  1  0  0  0  0
 16 17  1  0  0  0  0
 17 18  1  0  0  0  0
 18 19  1  0  0  0  0
 18 25  1  0  0  0  0
 20 21  4  0  0  0  0
 20 24  4  0  0  0  0
 21 22  4  0  0  0  0
 21 23  1  0  0  0  0
 22 28  4  0  0  0  0
 24 25  1  0  0  0  0
 24 26  4  0  0  0  0
 25 31  2  0  0  0  0
 26 27  4  0  0  0  0
 26 28  4  0  0  0  0
 27 30  4  0  0  0  0
 28 29  4  0  0  0  0
 29 30  4  0  0  0  0
M  STY  1   1 DAT
M  SAL   1  1  27
M  SDT   1 MRV_IMPLICIT_H                                        
M  SDD   1     0.0000    0.0000    DR    ALL  0       0  
M  SED   1 IMPL_H1
M  END
> <From>
www.bindingDB.org

> <BindingDB Reactant_set_id>
1397287

> <Ligand InChI>
InChI=1S/C24H26ClN3O2S/c1-23(2,3)22-27-20-17(29)12-24(13-18(20)31-22)5-8-28(9-6-24)21(30)16-11-15(25)10-14-4-7-26-19(14)16/h4,7,10-11,26H,5-6,8-9,12-13H2,1-3H3

> <Ligand InChI Key>
YXQZKOYLWPHIQB-UHFFFAOYSA-N

> <BindingDB MonomerID>
663905

> <BindingDB Ligand Name>
US20240109915, Example 90

> <Target Name>
Activating signal cointegrator 1 complex subunit 1

> <Target Source Organism According to Curator or DataSource>


> <Ki (nM)>


> <IC50 (nM)>
 9.60

> <Kd (nM)>


> <EC50 (nM)>


> <kon (M-1-s-1)>


> <koff (s-1)>


> <pH>


> <Temp C>


> <Curation/DataSource>
US Patent

> <Article DOI>


> <BindingDB Entry DOI>
10.7270/Q2348QQ2

> <PMID>


> <PubChem AID>


> <Patent Number>
US20240109915

> <Authors>
Bagley, SW; Bootsma, AN; Choi, C; Dow, RL; Edmonds, DJ; Garcia-Irizarry, CN; Gerstenberger, BS; Ingle, G; O''Brien, JG; Parikh, MD; Rescourio, GC; Schmitt, DC

> <Institution>
Pfizer

> <Link to Ligand in BindingDB>
http://www.bindingdb.org/bind/chemsearch/marvin/MolStructure.jsp?monomerid=663905

> <Link to Ligand-Target Pair in BindingDB>
http://www.bindingdb.org/jsp/dbsearch/PrimarySearch_ki.jsp?energyterm=kJ/mole&tag=pol&polymerid=735&target=Activating+signal+cointegrator+1+complex+subunit+1&column=ki&startPg=0&Increment=50&submit=Search

> <Link to Ligand-Target Pair in BindingDB>
http://www.bindingdb.org/jsp/dbsearch/PrimarySearch_ki.jsp?energyterm=kJ/mole&tag=r21&monomerid=663905&enzyme=Activating+signal+cointegrator+1+complex+subunit+1&column=ki&startPg=0&Increment=50&submit=Search

> <Ligand HET ID in PDB>


> <PDB ID(s) for Ligand-Target Complex>


> <PubChem CID>


> <PubChem SID>


> <ChEBI ID of Ligand>


> <ChEMBL ID of Ligand>


> <DrugBank ID of Ligand>


> <IUPHAR_GRAC ID of Ligand>


> <KEGG ID of Ligand>


> <ZINC ID of Ligand>


> <Number of Protein Chains in Target (bigger than 1 implies a multichain complex)>
1

> <BindingDB Target Chain Sequence>
MEVLRPQLIRIDGRNYRKNPVQEQTYQHEEDEEDFYQGSMECADEPCDAYEVEQTPQGFRSTLRAPSLLYNLIHLNTSNDCGFQKITLDCQNIYTWKSRHIVGKRGDTRKKIEMETKTSISIPKPGQDGEIVITGQHRNGVISARTRIDVLLDTFRRKQPFTHFLAFFLNEVEVQEGFLRFQEEVLAKCSMDHGVDSSIFQNPKKLHLTIGMLVLLSEEEIQQTCEMLQQCKEEFINDISGGKPLEVEMAGIEYMNDDPGMVDVLYAKVHMKDGSNRLQELVDRVLERFQASGLIVKEWNSVKLHATVMNTLFRKDPNAEGRYNLYTAEGKYIFKERESFDGRNILKSFALLPRLEYNDAISAHCNLCLPGSSDSPASASQVAGITGVSDAYSQSLPGKS

> <PDB ID(s) of Target Chain>


> <UniProt (SwissProt) Recommended Name of Target Chain>
Activating signal cointegrator 1 complex subunit 1

> <UniProt (SwissProt) Entry Name of Target Chain>
ASCC1_HUMAN

> <UniProt (SwissProt) Primary ID of Target Chain>
Q8N9N2

> <UniProt (SwissProt) Secondary ID(s) of Target Chain>
Q5SW06 Q5SW07 Q96EI8 Q9Y307

> <UniProt (SwissProt) Alternative ID(s) of Target Chain>


> <UniProt (TrEMBL) Submitted Name of Target Chain>


> <UniProt (TrEMBL) Entry Name of Target Chain>


> <UniProt (TrEMBL) Primary ID of Target Chain>


> <UniProt (TrEMBL) Secondary ID(s) of Target Chain>


> <UniProt (TrEMBL) Alternative ID(s) of Target Chain>


$$$$
00252001.cdx
  Mrv0541 06272400352D          

 31 35  0  0  0  0            999 V2000
   -2.0329    0.8250    0.0000 C   0  0  0  0  0  0  0  0  0  0  0  0
   -2.0329    0.0000    0.0000 C   0  0  0  0  0  0  0  0  0  0  0  0
   -1.3184   -0.4125    0.0000 C   0  0  0  0  0  0  0  0  0  0  0  0
   -0.6039    0.0000    0.0000 C   0  0  0  0  0  0  0  0  0  0  0  0
   -0.6039    0.8250    0.0000 C   0  0  0  0  0  0  0  0  0  0  0  0
   -1.3184    1.2375    0.0000 C   0  0  0  0  0  0  0  0  0  0  0  0
   -0.6039   -0.8250    0.0000 C   0  0  0  0  0  0  0  0  0  0  0  0
    0.1105   -1.2375    0.0000 C   0  0  0  0  0  0  0  0  0  0  0  0
    0.8250   -0.8250    0.0000 N   0  0  0  0  0  0  0  0  0  0  0  0
    0.8250    0.0000    0.0000 C   0  0  0  0  0  0  0  0  0  0  0  0
    0.1105    0.4125    0.0000 C   0  0  0  0  0  0  0  0  0  0  0  0
    1.5395   -1.2375    0.0000 C   0  0  0  0  0  0  0  0  0  0  0  0
    2.2539   -0.8250    0.0000 C   0  0  0  0  0  0  0  0  0  0  0  0
    1.5395   -2.0625    0.0000 O   0  0  0  0  0  0  0  0  0  0  0  0
    2.9684   -1.2375    0.0000 C   0  0  0  0  0  0  0  0  0  0  0  0
    3.6829   -0.8250    0.0000 C   0  0  0  0  0  0  0  0  0  0  0  0
    3.6829    0.0000    0.0000 C   0  0  0  0  0  0  0  0  0  0  0  0
    2.9684    0.4125    0.0000 C   0  0  0  0  0  0  0  0  0  0  0  0
    2.2539    0.0000    0.0000 C   0  0  0  0  0  0  0  0  0  0  0  0
    2.9684    1.2375    0.0000 C   0  0  0  0  0  0  0  0  0  0  0  0
   -1.3184    2.0625    0.0000 O   0  0  0  0  0  0  0  0  0  0  0  0
   -2.8175    1.0799    0.0000 N   0  0  0  0  0  0  0  0  0  0  0  0
   -3.3024    0.4125    0.0000 C   0  0  0  0  0  0  0  0  0  0  0  0
   -2.8175   -0.2549    0.0000 S   0  0  0  0  0  0  0  0  0  0  0  0
   -4.1274    0.4125    0.0000 C   0  0  0  0  0  0  0  0  0  0  0  0
   -4.5399    1.1270    0.0000 C   0  0  0  0  0  0  0  0  0  0  0  0
   -4.5399   -0.3020    0.0000 C   0  0  0  0  0  0  0  0  0  0  0  0
   -4.9524    0.4125    0.0000 C   0  0  0  0  0  0  0  0  0  0  0  0
    4.4675   -1.0799    0.0000 C   0  0  0  0  0  0  0  0  0  0  0  0
    4.9524   -0.4125    0.0000 C   0  0  0  0  0  0  0  0  0  0  0  0
    4.4675    0.2549    0.0000 N   0  0  0  0  0  0  0  0  0  0  0  0
  1  2  4  0  0  0  0
  2  3  1  0  0  0  0
  3  4  1  0  0  0  0
  4  5  1  0  0  0  0
  5  6  1  0  0  0  0
  6  1  1  0  0  0  0
  4  7  1  0  0  0  0
  7  8  1  0  0  0  0
  8  9  1  0  0  0  0
  9 10  1  0  0  0  0
 10 11  1  0  0  0  0
 11  4  1  0  0  0  0
  9 12  1  0  0  0  0
 12 13  1  0  0  0  0
 12 14  2  0  0  0  0
 13 15  4  0  0  0  0
 15 16  4  0  0  0  0
 16 17  4  0  0  0  0
 17 18  4  0  0  0  0
 18 19  4  0  0  0  0
 19 13  4  0  0  0  0
 18 20  1  0  0  0  0
  6 21  2  0  0  0  0
  1 22  4  0  0  0  0
 22 23  4  0  0  0  0
 23 24  4  0  0  0  0
 24  2  4  0  0  0  0
 23 25  1  0  0  0  0
 25 26  1  0  0  0  0
 25 27  1  0  0  0  0
 25 28  1  0  0  0  0
 16 29  4  0  0  0  0
 29 30  4  0  0  0  0
 30 31  4  0  0  0  0
 31 17  4  0  0  0  0
M  STY  1   1 DAT
M  SAL   1  1  31
M  SDT   1 MRV_IMPLICIT_H                                        
M  SDD   1     0.0000    0.0000    DR    ALL  0       0  
M  SED   1 IMPL_H1
M  END
> <From>
www.bindingDB.org

> <BindingDB Reactant_set_id>
1397218

> <Ligand InChI>
InChI=1S/C25H29N3O2S/c1-15-11-17(12-16-5-8-26-20(15)16)22(30)28-9-6-25(7-10-28)13-18(29)21-19(14-25)31-23(27-21)24(2,3)4/h5,8,11-12,26H,6-7,9-10,13-14H2,1-4H3

> <Ligand InChI Key>
BTTMCKMYUUBVQM-UHFFFAOYSA-N

> <BindingDB MonomerID>
663836

> <BindingDB Ligand Name>
US20240109915, Example 17

> <Target Name>
Activating signal cointegrator 1 complex subunit 1

> <Target Source Organism According to Curator or DataSource>


> <Ki (nM)>


> <IC50 (nM)>
 9.60

> <Kd (nM)>


> <EC50 (nM)>


> <kon (M-1-s-1)>


> <koff (s-1)>


> <pH>


> <Temp C>


> <Curation/DataSource>
US Patent

> <Article DOI>


> <BindingDB Entry DOI>
10.7270/Q2348QQ2

> <PMID>


> <PubChem AID>


> <Patent Number>
US20240109915

> <Authors>
Bagley, SW; Bootsma, AN; Choi, C; Dow, RL; Edmonds, DJ; Garcia-Irizarry, CN; Gerstenberger, BS; Ingle, G; O''Brien, JG; Parikh, MD; Rescourio, GC; Schmitt, DC

> <Institution>
Pfizer

> <Link to Ligand in BindingDB>
http://www.bindingdb.org/bind/chemsearch/marvin/MolStructure.jsp?monomerid=663836

> <Link to Ligand-Target Pair in BindingDB>
http://www.bindingdb.org/jsp/dbsearch/PrimarySearch_ki.jsp?energyterm=kJ/mole&tag=pol&polymerid=735&target=Activating+signal+cointegrator+1+complex+subunit+1&column=ki&startPg=0&Increment=50&submit=Search

> <Link to Ligand-Target Pair in BindingDB>
http://www.bindingdb.org/jsp/dbsearch/PrimarySearch_ki.jsp?energyterm=kJ/mole&tag=r21&monomerid=663836&enzyme=Activating+signal+cointegrator+1+complex+subunit+1&column=ki&startPg=0&Increment=50&submit=Search

> <Ligand HET ID in PDB>


> <PDB ID(s) for Ligand-Target Complex>


> <PubChem CID>


> <PubChem SID>


> <ChEBI ID of Ligand>


> <ChEMBL ID of Ligand>


> <DrugBank ID of Ligand>


> <IUPHAR_GRAC ID of Ligand>


> <KEGG ID of Ligand>


> <ZINC ID of Ligand>


> <Number of Protein Chains in Target (bigger than 1 implies a multichain complex)>
1

> <BindingDB Target Chain Sequence>
MEVLRPQLIRIDGRNYRKNPVQEQTYQHEEDEEDFYQGSMECADEPCDAYEVEQTPQGFRSTLRAPSLLYNLIHLNTSNDCGFQKITLDCQNIYTWKSRHIVGKRGDTRKKIEMETKTSISIPKPGQDGEIVITGQHRNGVISARTRIDVLLDTFRRKQPFTHFLAFFLNEVEVQEGFLRFQEEVLAKCSMDHGVDSSIFQNPKKLHLTIGMLVLLSEEEIQQTCEMLQQCKEEFINDISGGKPLEVEMAGIEYMNDDPGMVDVLYAKVHMKDGSNRLQELVDRVLERFQASGLIVKEWNSVKLHATVMNTLFRKDPNAEGRYNLYTAEGKYIFKERESFDGRNILKSFALLPRLEYNDAISAHCNLCLPGSSDSPASASQVAGITGVSDAYSQSLPGKS

> <PDB ID(s) of Target Chain>


> <UniProt (SwissProt) Recommended Name of Target Chain>
Activating signal cointegrator 1 complex subunit 1

> <UniProt (SwissProt) Entry Name of Target Chain>
ASCC1_HUMAN

> <UniProt (SwissProt) Primary ID of Target Chain>
Q8N9N2

> <UniProt (SwissProt) Secondary ID(s) of Target Chain>
Q5SW06 Q5SW07 Q96EI8 Q9Y307

> <UniProt (SwissProt) Alternative ID(s) of Target Chain>


> <UniProt (TrEMBL) Submitted Name of Target Chain>


> <UniProt (TrEMBL) Entry Name of Target Chain>


> <UniProt (TrEMBL) Primary ID of Target Chain>


> <UniProt (TrEMBL) Secondary ID(s) of Target Chain>


> <UniProt (TrEMBL) Alternative ID(s) of Target Chain>


$$$$
00254001.cdx
  Mrv0541 06272400352D          

 34 38  0  0  0  0            999 V2000
   -2.8271    0.8250    0.0000 C   0  0  0  0  0  0  0  0  0  0  0  0
   -2.8271    0.0000    0.0000 C   0  0  0  0  0  0  0  0  0  0  0  0
   -2.1126   -0.4125    0.0000 C   0  0  0  0  0  0  0  0  0  0  0  0
   -1.3981    0.0000    0.0000 C   0  0  0  0  0  0  0  0  0  0  0  0
   -1.3981    0.8250    0.0000 C   0  0  0  0  0  0  0  0  0  0  0  0
   -2.1126    1.2375    0.0000 C   0  0  0  0  0  0  0  0  0  0  0  0
   -1.3981   -0.8250    0.0000 C   0  0  0  0  0  0  0  0  0  0  0  0
   -0.6836   -1.2375    0.0000 C   0  0  0  0  0  0  0  0  0  0  0  0
    0.0308   -0.8250    0.0000 N   0  0  0  0  0  0  0  0  0  0  0  0
    0.0308    0.0000    0.0000 C   0  0  0  0  0  0  0  0  0  0  0  0
   -0.6836    0.4125    0.0000 C   0  0  0  0  0  0  0  0  0  0  0  0
    0.7453   -1.2375    0.0000 C   0  0  0  0  0  0  0  0  0  0  0  0
    1.4598   -0.8250    0.0000 C   0  0  0  0  0  0  0  0  0  0  0  0
    0.7453   -2.0625    0.0000 O   0  0  0  0  0  0  0  0  0  0  0  0
    2.1742   -1.2375    0.0000 C   0  0  0  0  0  0  0  0  0  0  0  0
    2.8887   -0.8250    0.0000 C   0  0  0  0  0  0  0  0  0  0  0  0
    2.8887    0.0000    0.0000 C   0  0  0  0  0  0  0  0  0  0  0  0
    2.1742    0.4125    0.0000 C   0  0  0  0  0  0  0  0  0  0  0  0
    1.4598    0.0000    0.0000 C   0  0  0  0  0  0  0  0  0  0  0  0
    2.1742    1.2375    0.0000 C   0  0  0  0  0  0  0  0  0  0  0  0
   -2.1126    2.0625    0.0000 O   0  0  0  0  0  0  0  0  0  0  0  0
   -3.6117    1.0799    0.0000 N   0  0  0  0  0  0  0  0  0  0  0  0
   -4.0966    0.4125    0.0000 C   0  0  0  0  0  0  0  0  0  0  0  0
   -3.6117   -0.2549    0.0000 S   0  0  0  0  0  0  0  0  0  0  0  0
   -4.9216    0.4125    0.0000 C   0  0  0  0  0  0  0  0  0  0  0  0
   -5.3341    1.1270    0.0000 C   0  0  0  0  0  0  0  0  0  0  0  0
   -5.3341   -0.3020    0.0000 C   0  0  0  0  0  0  0  0  0  0  0  0
   -5.7466    0.4125    0.0000 C   0  0  0  0  0  0  0  0  0  0  0  0
    3.6032   -1.2375    0.0000 C   0  0  0  0  0  0  0  0  0  0  0  0
    4.3177   -0.8250    0.0000 C   0  0  0  0  0  0  0  0  0  0  0  0
    4.3177    0.0000    0.0000 C   0  0  0  0  0  0  0  0  0  0  0  0
    3.6032    0.4125    0.0000 N   0  0  0  0  0  0  0  0  0  0  0  0
    5.0321   -1.2375    0.0000 O   0  0  0  0  0  0  0  0  0  0  0  0
    5.7466   -0.8250    0.0000 C   0  0  0  0  0  0  0  0  0  0  0  0
  1  2  4  0  0  0  0
  2  3  1  0  0  0  0
  3  4  1  0  0  0  0
  4  5  1  0  0  0  0
  5  6  1  0  0  0  0
  6  1  1  0  0  0  0
  4  7  1  0  0  0  0
  7  8  1  0  0  0  0
  8  9  1  0  0  0  0
  9 10  1  0  0  0  0
 10 11  1  0  0  0  0
 11  4  1  0  0  0  0
  9 12  1  0  0  0  0
 12 13  1  0  0  0  0
 12 14  2  0  0  0  0
 13 15  4  0  0  0  0
 15 16  4  0  0  0  0
 16 17  4  0  0  0  0
 17 18  4  0  0  0  0
 18 19  4  0  0  0  0
 19 13  4  0  0  0  0
 18 20  1  0  0  0  0
  6 21  2  0  0  0  0
  1 22  4  0  0  0  0
 22 23  4  0  0  0  0
 23 24  4  0  0  0  0
 24  2  4  0  0  0  0
 23 25  1  0  0  0  0
 25 26  1  0  0  0  0
 25 27  1  0  0  0  0
 25 28  1  0  0  0  0
 16 29  4  0  0  0  0
 29 30  4  0  0  0  0
 30 31  4  0  0  0  0
 31 32  4  0  0  0  0
 32 17  4  0  0  0  0
 30 33  1  0  0  0  0
 33 34  1  0  0  0  0
M  END
> <From>
www.bindingDB.org

> <BindingDB Reactant_set_id>
1397220

> <Ligand InChI>
InChI=1S/C27H31N3O3S/c1-16-10-18(11-17-12-19(33-5)15-28-22(16)17)24(32)30-8-6-27(7-9-30)13-20(31)23-21(14-27)34-25(29-23)26(2,3)4/h10-12,15H,6-9,13-14H2,1-5H3

> <Ligand InChI Key>
HKLGVOVLRDALOM-UHFFFAOYSA-N

> <BindingDB MonomerID>
663838

> <BindingDB Ligand Name>
US20240109915, Example 19

> <Target Name>
Activating signal cointegrator 1 complex subunit 1

> <Target Source Organism According to Curator or DataSource>


> <Ki (nM)>


> <IC50 (nM)>
 9.90

> <Kd (nM)>


> <EC50 (nM)>


> <kon (M-1-s-1)>


> <koff (s-1)>


> <pH>


> <Temp C>


> <Curation/DataSource>
US Patent

> <Article DOI>


> <BindingDB Entry DOI>
10.7270/Q2348QQ2

> <PMID>


> <PubChem AID>


> <Patent Number>
US20240109915

> <Authors>
Bagley, SW; Bootsma, AN; Choi, C; Dow, RL; Edmonds, DJ; Garcia-Irizarry, CN; Gerstenberger, BS; Ingle, G; O''Brien, JG; Parikh, MD; Rescourio, GC; Schmitt, DC

> <Institution>
Pfizer

> <Link to Ligand in BindingDB>
http://www.bindingdb.org/bind/chemsearch/marvin/MolStructure.jsp?monomerid=663838

> <Link to Ligand-Target Pair in BindingDB>
http://www.bindingdb.org/jsp/dbsearch/PrimarySearch_ki.jsp?energyterm=kJ/mole&tag=pol&polymerid=735&target=Activating+signal+cointegrator+1+complex+subunit+1&column=ki&startPg=0&Increment=50&submit=Search

> <Link to Ligand-Target Pair in BindingDB>
http://www.bindingdb.org/jsp/dbsearch/PrimarySearch_ki.jsp?energyterm=kJ/mole&tag=r21&monomerid=663838&enzyme=Activating+signal+cointegrator+1+complex+subunit+1&column=ki&startPg=0&Increment=50&submit=Search

> <Ligand HET ID in PDB>


> <PDB ID(s) for Ligand-Target Complex>


> <PubChem CID>


> <PubChem SID>


> <ChEBI ID of Ligand>


> <ChEMBL ID of Ligand>


> <DrugBank ID of Ligand>


> <IUPHAR_GRAC ID of Ligand>


> <KEGG ID of Ligand>


> <ZINC ID of Ligand>


> <Number of Protein Chains in Target (bigger than 1 implies a multichain complex)>
1

> <BindingDB Target Chain Sequence>
MEVLRPQLIRIDGRNYRKNPVQEQTYQHEEDEEDFYQGSMECADEPCDAYEVEQTPQGFRSTLRAPSLLYNLIHLNTSNDCGFQKITLDCQNIYTWKSRHIVGKRGDTRKKIEMETKTSISIPKPGQDGEIVITGQHRNGVISARTRIDVLLDTFRRKQPFTHFLAFFLNEVEVQEGFLRFQEEVLAKCSMDHGVDSSIFQNPKKLHLTIGMLVLLSEEEIQQTCEMLQQCKEEFINDISGGKPLEVEMAGIEYMNDDPGMVDVLYAKVHMKDGSNRLQELVDRVLERFQASGLIVKEWNSVKLHATVMNTLFRKDPNAEGRYNLYTAEGKYIFKERESFDGRNILKSFALLPRLEYNDAISAHCNLCLPGSSDSPASASQVAGITGVSDAYSQSLPGKS

> <PDB ID(s) of Target Chain>


> <UniProt (SwissProt) Recommended Name of Target Chain>
Activating signal cointegrator 1 complex subunit 1

> <UniProt (SwissProt) Entry Name of Target Chain>
ASCC1_HUMAN

> <UniProt (SwissProt) Primary ID of Target Chain>
Q8N9N2

> <UniProt (SwissProt) Secondary ID(s) of Target Chain>
Q5SW06 Q5SW07 Q96EI8 Q9Y307

> <UniProt (SwissProt) Alternative ID(s) of Target Chain>


> <UniProt (TrEMBL) Submitted Name of Target Chain>


> <UniProt (TrEMBL) Entry Name of Target Chain>


> <UniProt (TrEMBL) Primary ID of Target Chain>


> <UniProt (TrEMBL) Secondary ID(s) of Target Chain>


> <UniProt (TrEMBL) Alternative ID(s) of Target Chain>


$$$$
00245001.cdx
  Mrv0541 06272400352D          

 33 37  0  0  0  0            999 V2000
   -2.2391    0.8250    0.0000 C   0  0  0  0  0  0  0  0  0  0  0  0
   -2.2391    0.0000    0.0000 C   0  0  0  0  0  0  0  0  0  0  0  0
   -1.5247   -0.4125    0.0000 C   0  0  0  0  0  0  0  0  0  0  0  0
   -0.8102    0.0000    0.0000 C   0  0  0  0  0  0  0  0  0  0  0  0
   -0.8102    0.8250    0.0000 C   0  0  0  0  0  0  0  0  0  0  0  0
   -1.5247    1.2375    0.0000 C   0  0  0  0  0  0  0  0  0  0  0  0
   -0.8102   -0.8250    0.0000 C   0  0  0  0  0  0  0  0  0  0  0  0
   -0.0957   -1.2375    0.0000 C   0  0  0  0  0  0  0  0  0  0  0  0
    0.6187   -0.8250    0.0000 N   0  0  0  0  0  0  0  0  0  0  0  0
    0.6187    0.0000    0.0000 C   0  0  0  0  0  0  0  0  0  0  0  0
   -0.0957    0.4125    0.0000 C   0  0  0  0  0  0  0  0  0  0  0  0
    1.3332   -1.2375    0.0000 C   0  0  0  0  0  0  0  0  0  0  0  0
    2.0477   -0.8250    0.0000 C   0  0  0  0  0  0  0  0  0  0  0  0
    1.3332   -2.0625    0.0000 O   0  0  0  0  0  0  0  0  0  0  0  0
    2.7622   -1.2375    0.0000 C   0  0  0  0  0  0  0  0  0  0  0  0
    3.4766   -0.8250    0.0000 C   0  0  0  0  0  0  0  0  0  0  0  0
    3.4766    0.0000    0.0000 C   0  0  0  0  0  0  0  0  0  0  0  0
    2.7622    0.4125    0.0000 C   0  0  0  0  0  0  0  0  0  0  0  0
    2.0477    0.0000    0.0000 C   0  0  0  0  0  0  0  0  0  0  0  0
    2.7622    1.2375    0.0000 O   0  0  0  0  0  0  0  0  0  0  0  0
   -1.5247    2.0625    0.0000 O   0  0  0  0  0  0  0  0  0  0  0  0
   -3.0238    1.0799    0.0000 N   0  0  0  0  0  0  0  0  0  0  0  0
   -3.5087    0.4125    0.0000 C   0  0  0  0  0  0  0  0  0  0  0  0
   -3.0238   -0.2549    0.0000 S   0  0  0  0  0  0  0  0  0  0  0  0
   -4.3337    0.4125    0.0000 C   0  0  0  0  0  0  0  0  0  0  0  0
   -4.7462   -0.3020    0.0000 C   0  0  0  0  0  0  0  0  0  0  0  0
    2.0477    1.6500    0.0000 C   0  0  0  0  0  0  0  0  0  0  0  0
    4.2613   -1.0799    0.0000 C   0  0  0  0  0  0  0  0  0  0  0  0
    4.7462   -0.4125    0.0000 N   0  0  0  0  0  0  0  0  0  0  0  0
    4.2613    0.2549    0.0000 N   0  0  0  0  0  0  0  0  0  0  0  0
    4.5162    1.0396    0.0000 C   0  0  0  0  0  0  0  0  0  0  0  0
    4.5162   -1.8646    0.0000 C   0  0  0  0  0  0  0  0  0  0  0  0
   -4.7462    1.1270    0.0000 C   0  0  0  0  0  0  0  0  0  0  0  0
  1  2  4  0  0  0  0
  2  3  1  0  0  0  0
  3  4  1  0  0  0  0
  4  5  1  0  0  0  0
  5  6  1  0  0  0  0
  6  1  1  0  0  0  0
  4  7  1  0  0  0  0
  7  8  1  0  0  0  0
  8  9  1  0  0  0  0
  9 10  1  0  0  0  0
 10 11  1  0  0  0  0
 11  4  1  0  0  0  0
  9 12  1  0  0  0  0
 12 13  1  0  0  0  0
 12 14  2  0  0  0  0
 13 15  4  0  0  0  0
 15 16  4  0  0  0  0
 16 17  4  0  0  0  0
 17 18  4  0  0  0  0
 18 19  4  0  0  0  0
 19 13  4  0  0  0  0
 18 20  1  0  0  0  0
  6 21  2  0  0  0  0
  1 22  4  0  0  0  0
 22 23  4  0  0  0  0
 23 24  4  0  0  0  0
 24  2  4  0  0  0  0
 23 25  1  0  0  0  0
 25 26  1  0  0  0  0
 20 27  1  0  0  0  0
 16 28  4  0  0  0  0
 28 29  4  0  0  0  0
 29 30  4  0  0  0  0
 30 17  4  0  0  0  0
 30 31  1  0  0  0  0
 28 32  1  0  0  0  0
 25 33  1  0  0  0  0
M  END
> <From>
www.bindingDB.org

> <BindingDB Reactant_set_id>
1397211

> <Ligand InChI>
InChI=1S/C25H30N4O3S/c1-14(2)23-26-21-18(30)12-25(13-20(21)33-23)6-8-29(9-7-25)24(31)16-10-17-15(3)27-28(4)22(17)19(11-16)32-5/h10-11,14H,6-9,12-13H2,1-5H3

> <Ligand InChI Key>
OONVIRXBKNYADZ-UHFFFAOYSA-N

> <BindingDB MonomerID>
663829

> <BindingDB Ligand Name>
US20240109915, Example 10

> <Target Name>
Activating signal cointegrator 1 complex subunit 1

> <Target Source Organism According to Curator or DataSource>


> <Ki (nM)>


> <IC50 (nM)>
 10.00

> <Kd (nM)>


> <EC50 (nM)>


> <kon (M-1-s-1)>


> <koff (s-1)>


> <pH>


> <Temp C>


> <Curation/DataSource>
US Patent

> <Article DOI>


> <BindingDB Entry DOI>
10.7270/Q2348QQ2

> <PMID>


> <PubChem AID>


> <Patent Number>
US20240109915

> <Authors>
Bagley, SW; Bootsma, AN; Choi, C; Dow, RL; Edmonds, DJ; Garcia-Irizarry, CN; Gerstenberger, BS; Ingle, G; O''Brien, JG; Parikh, MD; Rescourio, GC; Schmitt, DC

> <Institution>
Pfizer

> <Link to Ligand in BindingDB>
http://www.bindingdb.org/bind/chemsearch/marvin/MolStructure.jsp?monomerid=663829

> <Link to Ligand-Target Pair in BindingDB>
http://www.bindingdb.org/jsp/dbsearch/PrimarySearch_ki.jsp?energyterm=kJ/mole&tag=pol&polymerid=735&target=Activating+signal+cointegrator+1+complex+subunit+1&column=ki&startPg=0&Increment=50&submit=Search

> <Link to Ligand-Target Pair in BindingDB>
http://www.bindingdb.org/jsp/dbsearch/PrimarySearch_ki.jsp?energyterm=kJ/mole&tag=r21&monomerid=663829&enzyme=Activating+signal+cointegrator+1+complex+subunit+1&column=ki&startPg=0&Increment=50&submit=Search

> <Ligand HET ID in PDB>


> <PDB ID(s) for Ligand-Target Complex>


> <PubChem CID>


> <PubChem SID>


> <ChEBI ID of Ligand>


> <ChEMBL ID of Ligand>


> <DrugBank ID of Ligand>


> <IUPHAR_GRAC ID of Ligand>


> <KEGG ID of Ligand>


> <ZINC ID of Ligand>


> <Number of Protein Chains in Target (bigger than 1 implies a multichain complex)>
1

> <BindingDB Target Chain Sequence>
MEVLRPQLIRIDGRNYRKNPVQEQTYQHEEDEEDFYQGSMECADEPCDAYEVEQTPQGFRSTLRAPSLLYNLIHLNTSNDCGFQKITLDCQNIYTWKSRHIVGKRGDTRKKIEMETKTSISIPKPGQDGEIVITGQHRNGVISARTRIDVLLDTFRRKQPFTHFLAFFLNEVEVQEGFLRFQEEVLAKCSMDHGVDSSIFQNPKKLHLTIGMLVLLSEEEIQQTCEMLQQCKEEFINDISGGKPLEVEMAGIEYMNDDPGMVDVLYAKVHMKDGSNRLQELVDRVLERFQASGLIVKEWNSVKLHATVMNTLFRKDPNAEGRYNLYTAEGKYIFKERESFDGRNILKSFALLPRLEYNDAISAHCNLCLPGSSDSPASASQVAGITGVSDAYSQSLPGKS

> <PDB ID(s) of Target Chain>


> <UniProt (SwissProt) Recommended Name of Target Chain>
Activating signal cointegrator 1 complex subunit 1

> <UniProt (SwissProt) Entry Name of Target Chain>
ASCC1_HUMAN

> <UniProt (SwissProt) Primary ID of Target Chain>
Q8N9N2

> <UniProt (SwissProt) Secondary ID(s) of Target Chain>
Q5SW06 Q5SW07 Q96EI8 Q9Y307

> <UniProt (SwissProt) Alternative ID(s) of Target Chain>


> <UniProt (TrEMBL) Submitted Name of Target Chain>


> <UniProt (TrEMBL) Entry Name of Target Chain>


> <UniProt (TrEMBL) Primary ID of Target Chain>


> <UniProt (TrEMBL) Secondary ID(s) of Target Chain>


> <UniProt (TrEMBL) Alternative ID(s) of Target Chain>


$$$$
00336001.cdx
  Mrv0541 06272400352D          

 35 39  0  0  0  0            999 V2000
   -4.0966    0.4125    0.0000 C   0  0  0  0  0  0  0  0  0  0  0  0
   -3.6117    1.0799    0.0000 N   0  0  0  0  0  0  0  0  0  0  0  0
   -4.9216    0.4125    0.0000 C   0  0  0  0  0  0  0  0  0  0  0  0
   -3.6117   -0.2549    0.0000 S   0  0  0  0  0  0  0  0  0  0  0  0
   -5.7466    0.4125    0.0000 C   0  0  0  0  0  0  0  0  0  0  0  0
   -5.3341    1.1270    0.0000 C   0  0  0  0  0  0  0  0  0  0  0  0
   -5.3341   -0.3020    0.0000 C   0  0  0  0  0  0  0  0  0  0  0  0
   -1.3981    0.0000    0.0000 C   0  0  0  0  0  0  0  0  0  0  0  0
   -1.3981   -0.8250    0.0000 C   0  0  0  0  0  0  0  0  0  0  0  0
   -0.6836   -1.2375    0.0000 C   0  0  0  0  0  0  0  0  0  0  0  0
   -2.1126   -0.4125    0.0000 C   0  0  0  0  0  0  0  0  0  0  0  0
   -2.8271    0.0000    0.0000 C   0  0  0  0  0  0  0  0  0  0  0  0
   -2.8271    0.8250    0.0000 C   0  0  0  0  0  0  0  0  0  0  0  0
   -2.1126    1.2375    0.0000 C   0  0  0  0  0  0  0  0  0  0  0  0
   -2.1126    2.0625    0.0000 O   0  0  0  0  0  0  0  0  0  0  0  0
   -1.3981    0.8250    0.0000 C   0  0  0  0  0  0  0  0  0  0  0  0
   -0.6836    0.4125    0.0000 C   0  0  0  0  0  0  0  0  0  0  0  0
    0.0308    0.0000    0.0000 C   0  0  0  0  0  0  0  0  0  0  0  0
    0.0308   -0.8250    0.0000 N   0  0  0  0  0  0  0  0  0  0  0  0
    0.7453   -1.2375    0.0000 C   0  0  0  0  0  0  0  0  0  0  0  0
    0.7453   -2.0625    0.0000 O   0  0  0  0  0  0  0  0  0  0  0  0
    1.4598   -0.8250    0.0000 C   0  0  0  0  0  0  0  0  0  0  0  0
    1.4598    0.0000    0.0000 C   0  0  0  0  0  0  0  0  0  0  0  0
    2.1742    0.4125    0.0000 C   0  0  0  0  0  0  0  0  0  0  0  0
    2.1742    1.2375    0.0000 O   0  0  0  0  0  0  0  0  0  0  0  0
    2.8887    0.0000    0.0000 C   0  0  0  0  0  0  0  0  0  0  0  0
    3.6032    0.4125    0.0000 N   0  0  0  0  0  0  0  0  0  0  0  0
    2.8887   -0.8250    0.0000 C   0  0  0  0  0  0  0  0  0  0  0  0
    3.6032   -1.2375    0.0000 C   0  0  0  0  0  0  0  0  0  0  0  0
    4.3177   -0.8250    0.0000 C   0  0  0  0  0  0  0  0  0  0  0  0
    4.3177    0.0000    0.0000 C   0  0  0  0  0  0  0  0  0  0  0  0
    5.0321   -1.2375    0.0000 O   0  0  0  0  0  0  0  0  0  0  0  0
    2.1742   -1.2375    0.0000 C   0  0  0  0  0  0  0  0  0  0  0  0
    1.4598    1.6500    0.0000 C   0  0  0  0  0  0  0  0  0  0  0  0
    5.7466   -0.8250    0.0000 C   0  0  0  0  0  0  0  0  0  0  0  0
  1  2  4  0  0  0  0
  1  3  1  0  0  0  0
  1  4  4  0  0  0  0
  2 13  4  0  0  0  0
  3  5  1  0  0  0  0
  3  6  1  0  0  0  0
  3  7  1  0  0  0  0
  4 12  4  0  0  0  0
  8  9  1  0  0  0  0
  8 11  1  0  0  0  0
  8 16  1  0  0  0  0
  8 17  1  0  0  0  0
  9 10  1  0  0  0  0
 10 19  1  0  0  0  0
 11 12  1  0  0  0  0
 12 13  4  0  0  0  0
 13 14  1  0  0  0  0
 14 15  2  0  0  0  0
 14 16  1  0  0  0  0
 17 18  1  0  0  0  0
 18 19  1  0  0  0  0
 19 20  1  0  0  0  0
 20 21  2  0  0  0  0
 20 22  1  0  0  0  0
 22 23  4  0  0  0  0
 22 33  4  0  0  0  0
 23 24  4  0  0  0  0
 24 25  1  0  0  0  0
 24 26  4  0  0  0  0
 25 34  1  0  0  0  0
 26 27  4  0  0  0  0
 26 28  4  0  0  0  0
 27 31  4  0  0  0  0
 28 29  4  0  0  0  0
 28 33  4  0  0  0  0
 29 30  4  0  0  0  0
 30 31  4  0  0  0  0
 30 32  1  0  0  0  0
 32 35  1  0  0  0  0
M  END
> <From>
www.bindingDB.org

> <BindingDB Reactant_set_id>
1397298

> <Ligand InChI>
InChI=1S/C27H31N3O4S/c1-26(2,3)25-29-23-19(31)13-27(14-21(23)35-25)6-8-30(9-7-27)24(32)17-10-16-11-18(33-4)15-28-22(16)20(12-17)34-5/h10-12,15H,6-9,13-14H2,1-5H3

> <Ligand InChI Key>
XKSCWZDAFNWOMN-UHFFFAOYSA-N

> <BindingDB MonomerID>
663916

> <BindingDB Ligand Name>
US20240109915, Example 101

> <Target Name>
Activating signal cointegrator 1 complex subunit 1

> <Target Source Organism According to Curator or DataSource>


> <Ki (nM)>


> <IC50 (nM)>
 10.1

> <Kd (nM)>


> <EC50 (nM)>


> <kon (M-1-s-1)>


> <koff (s-1)>


> <pH>


> <Temp C>


> <Curation/DataSource>
US Patent

> <Article DOI>


> <BindingDB Entry DOI>
10.7270/Q2348QQ2

> <PMID>


> <PubChem AID>


> <Patent Number>
US20240109915

> <Authors>
Bagley, SW; Bootsma, AN; Choi, C; Dow, RL; Edmonds, DJ; Garcia-Irizarry, CN; Gerstenberger, BS; Ingle, G; O''Brien, JG; Parikh, MD; Rescourio, GC; Schmitt, DC

> <Institution>
Pfizer

> <Link to Ligand in BindingDB>
http://www.bindingdb.org/bind/chemsearch/marvin/MolStructure.jsp?monomerid=663916

> <Link to Ligand-Target Pair in BindingDB>
http://www.bindingdb.org/jsp/dbsearch/PrimarySearch_ki.jsp?energyterm=kJ/mole&tag=pol&polymerid=735&target=Activating+signal+cointegrator+1+complex+subunit+1&column=ki&startPg=0&Increment=50&submit=Search

> <Link to Ligand-Target Pair in BindingDB>
http://www.bindingdb.org/jsp/dbsearch/PrimarySearch_ki.jsp?energyterm=kJ/mole&tag=r21&monomerid=663916&enzyme=Activating+signal+cointegrator+1+complex+subunit+1&column=ki&startPg=0&Increment=50&submit=Search

> <Ligand HET ID in PDB>


> <PDB ID(s) for Ligand-Target Complex>


> <PubChem CID>


> <PubChem SID>


> <ChEBI ID of Ligand>


> <ChEMBL ID of Ligand>


> <DrugBank ID of Ligand>


> <IUPHAR_GRAC ID of Ligand>


> <KEGG ID of Ligand>


> <ZINC ID of Ligand>


> <Number of Protein Chains in Target (bigger than 1 implies a multichain complex)>
1

> <BindingDB Target Chain Sequence>
MEVLRPQLIRIDGRNYRKNPVQEQTYQHEEDEEDFYQGSMECADEPCDAYEVEQTPQGFRSTLRAPSLLYNLIHLNTSNDCGFQKITLDCQNIYTWKSRHIVGKRGDTRKKIEMETKTSISIPKPGQDGEIVITGQHRNGVISARTRIDVLLDTFRRKQPFTHFLAFFLNEVEVQEGFLRFQEEVLAKCSMDHGVDSSIFQNPKKLHLTIGMLVLLSEEEIQQTCEMLQQCKEEFINDISGGKPLEVEMAGIEYMNDDPGMVDVLYAKVHMKDGSNRLQELVDRVLERFQASGLIVKEWNSVKLHATVMNTLFRKDPNAEGRYNLYTAEGKYIFKERESFDGRNILKSFALLPRLEYNDAISAHCNLCLPGSSDSPASASQVAGITGVSDAYSQSLPGKS

> <PDB ID(s) of Target Chain>


> <UniProt (SwissProt) Recommended Name of Target Chain>
Activating signal cointegrator 1 complex subunit 1

> <UniProt (SwissProt) Entry Name of Target Chain>
ASCC1_HUMAN

> <UniProt (SwissProt) Primary ID of Target Chain>
Q8N9N2

> <UniProt (SwissProt) Secondary ID(s) of Target Chain>
Q5SW06 Q5SW07 Q96EI8 Q9Y307

> <UniProt (SwissProt) Alternative ID(s) of Target Chain>


> <UniProt (TrEMBL) Submitted Name of Target Chain>


> <UniProt (TrEMBL) Entry Name of Target Chain>


> <UniProt (TrEMBL) Primary ID of Target Chain>


> <UniProt (TrEMBL) Secondary ID(s) of Target Chain>


> <UniProt (TrEMBL) Alternative ID(s) of Target Chain>


$$$$
00236001.cdx
  Mrv0541 06272400352D          

 32 37  0  0  0  0            999 V2000
   -2.0881    0.8250    0.0000 C   0  0  0  0  0  0  0  0  0  0  0  0
   -2.0881    0.0000    0.0000 C   0  0  0  0  0  0  0  0  0  0  0  0
   -1.3737   -0.4125    0.0000 C   0  0  0  0  0  0  0  0  0  0  0  0
   -0.6592    0.0000    0.0000 C   0  0  0  0  0  0  0  0  0  0  0  0
   -0.6592    0.8250    0.0000 C   0  0  0  0  0  0  0  0  0  0  0  0
   -1.3737    1.2375    0.0000 C   0  0  0  0  0  0  0  0  0  0  0  0
   -0.6592   -0.8250    0.0000 C   0  0  0  0  0  0  0  0  0  0  0  0
    0.0553   -1.2375    0.0000 C   0  0  0  0  0  0  0  0  0  0  0  0
    0.7697   -0.8250    0.0000 N   0  0  0  0  0  0  0  0  0  0  0  0
    0.7697    0.0000    0.0000 C   0  0  0  0  0  0  0  0  0  0  0  0
    0.0553    0.4125    0.0000 C   0  0  0  0  0  0  0  0  0  0  0  0
    1.4842   -1.2375    0.0000 C   0  0  0  0  0  0  0  0  0  0  0  0
    2.1987   -0.8250    0.0000 C   0  0  0  0  0  0  0  0  0  0  0  0
    1.4842   -2.0625    0.0000 O   0  0  0  0  0  0  0  0  0  0  0  0
    2.9131   -1.2375    0.0000 C   0  0  0  0  0  0  0  0  0  0  0  0
    3.6276   -0.8250    0.0000 C   0  0  0  0  0  0  0  0  0  0  0  0
    3.6276    0.0000    0.0000 C   0  0  0  0  0  0  0  0  0  0  0  0
    2.9131    0.4125    0.0000 C   0  0  0  0  0  0  0  0  0  0  0  0
    2.1987    0.0000    0.0000 C   0  0  0  0  0  0  0  0  0  0  0  0
    4.4122   -1.0799    0.0000 C   0  0  0  0  0  0  0  0  0  0  0  0
    4.8972   -0.4125    0.0000 N   0  0  0  0  0  0  0  0  0  0  0  0
    4.4122    0.2549    0.0000 N   0  0  0  0  0  0  0  0  0  0  0  0
    2.9131    1.2375    0.0000 C   0  0  0  0  0  0  0  0  0  0  0  0
    4.6672   -1.8646    0.0000 C   0  0  0  0  0  0  0  0  0  0  0  0
   -1.3737    2.0625    0.0000 O   0  0  0  0  0  0  0  0  0  0  0  0
   -2.8728    1.0799    0.0000 N   0  0  0  0  0  0  0  0  0  0  0  0
   -3.3577    0.4125    0.0000 C   0  0  0  0  0  0  0  0  0  0  0  0
   -2.8728   -0.2549    0.0000 S   0  0  0  0  0  0  0  0  0  0  0  0
   -4.1827    0.4125    0.0000 C   0  0  0  0  0  0  0  0  0  0  0  0
   -4.5952   -0.3020    0.0000 C   0  0  0  0  0  0  0  0  0  0  0  0
   -4.1827    1.2375    0.0000 C   0  0  0  0  0  0  0  0  0  0  0  0
   -4.8972    0.8250    0.0000 C   0  0  0  0  0  0  0  0  0  0  0  0
  1  2  4  0  0  0  0
  2  3  1  0  0  0  0
  3  4  1  0  0  0  0
  4  5  1  0  0  0  0
  5  6  1  0  0  0  0
  6  1  1  0  0  0  0
  4  7  1  0  0  0  0
  7  8  1  0  0  0  0
  8  9  1  0  0  0  0
  9 10  1  0  0  0  0
 10 11  1  0  0  0  0
 11  4  1  0  0  0  0
  9 12  1  0  0  0  0
 12 13  1  0  0  0  0
 12 14  2  0  0  0  0
 13 15  4  0  0  0  0
 15 16  4  0  0  0  0
 16 17  4  0  0  0  0
 17 18  4  0  0  0  0
 18 19  4  0  0  0  0
 19 13  4  0  0  0  0
 16 20  4  0  0  0  0
 20 21  4  0  0  0  0
 21 22  4  0  0  0  0
 22 17  4  0  0  0  0
 18 23  1  0  0  0  0
 20 24  1  0  0  0  0
  6 25  2  0  0  0  0
  1 26  4  0  0  0  0
 26 27  4  0  0  0  0
 27 28  4  0  0  0  0
 28  2  4  0  0  0  0
 27 29  1  0  0  0  0
 29 30  1  0  0  0  0
 29 31  1  0  0  0  0
 31 32  1  0  0  0  0
 32 29  1  0  0  0  0
M  STY  1   1 DAT
M  SAL   1  1  22
M  SDT   1 MRV_IMPLICIT_H                                        
M  SDD   1     0.0000    0.0000    DR    ALL  0       0  
M  SED   1 IMPL_H1
M  END
> <From>
www.bindingDB.org

> <BindingDB Reactant_set_id>
1397205

> <Ligand InChI>
InChI=1S/C25H28N4O2S/c1-14-10-16(11-17-15(2)27-28-20(14)17)22(31)29-8-6-25(7-9-29)12-18(30)21-19(13-25)32-23(26-21)24(3)4-5-24/h10-11H,4-9,12-13H2,1-3H3,(H,27,28)

> <Ligand InChI Key>
PKIKSBMJYZMICJ-UHFFFAOYSA-N

> <BindingDB MonomerID>
663823

> <BindingDB Ligand Name>
US20240109915, Example 1

> <Target Name>
Activating signal cointegrator 1 complex subunit 1

> <Target Source Organism According to Curator or DataSource>


> <Ki (nM)>


> <IC50 (nM)>
 10.6

> <Kd (nM)>


> <EC50 (nM)>


> <kon (M-1-s-1)>


> <koff (s-1)>


> <pH>


> <Temp C>


> <Curation/DataSource>
US Patent

> <Article DOI>


> <BindingDB Entry DOI>
10.7270/Q2348QQ2

> <PMID>


> <PubChem AID>


> <Patent Number>
US20240109915

> <Authors>
Bagley, SW; Bootsma, AN; Choi, C; Dow, RL; Edmonds, DJ; Garcia-Irizarry, CN; Gerstenberger, BS; Ingle, G; O''Brien, JG; Parikh, MD; Rescourio, GC; Schmitt, DC

> <Institution>
Pfizer

> <Link to Ligand in BindingDB>
http://www.bindingdb.org/bind/chemsearch/marvin/MolStructure.jsp?monomerid=663823

> <Link to Ligand-Target Pair in BindingDB>
http://www.bindingdb.org/jsp/dbsearch/PrimarySearch_ki.jsp?energyterm=kJ/mole&tag=pol&polymerid=735&target=Activating+signal+cointegrator+1+complex+subunit+1&column=ki&startPg=0&Increment=50&submit=Search

> <Link to Ligand-Target Pair in BindingDB>
http://www.bindingdb.org/jsp/dbsearch/PrimarySearch_ki.jsp?energyterm=kJ/mole&tag=r21&monomerid=663823&enzyme=Activating+signal+cointegrator+1+complex+subunit+1&column=ki&startPg=0&Increment=50&submit=Search

> <Ligand HET ID in PDB>


> <PDB ID(s) for Ligand-Target Complex>


> <PubChem CID>


> <PubChem SID>


> <ChEBI ID of Ligand>


> <ChEMBL ID of Ligand>


> <DrugBank ID of Ligand>


> <IUPHAR_GRAC ID of Ligand>


> <KEGG ID of Ligand>


> <ZINC ID of Ligand>


> <Number of Protein Chains in Target (bigger than 1 implies a multichain complex)>
1

> <BindingDB Target Chain Sequence>
MEVLRPQLIRIDGRNYRKNPVQEQTYQHEEDEEDFYQGSMECADEPCDAYEVEQTPQGFRSTLRAPSLLYNLIHLNTSNDCGFQKITLDCQNIYTWKSRHIVGKRGDTRKKIEMETKTSISIPKPGQDGEIVITGQHRNGVISARTRIDVLLDTFRRKQPFTHFLAFFLNEVEVQEGFLRFQEEVLAKCSMDHGVDSSIFQNPKKLHLTIGMLVLLSEEEIQQTCEMLQQCKEEFINDISGGKPLEVEMAGIEYMNDDPGMVDVLYAKVHMKDGSNRLQELVDRVLERFQASGLIVKEWNSVKLHATVMNTLFRKDPNAEGRYNLYTAEGKYIFKERESFDGRNILKSFALLPRLEYNDAISAHCNLCLPGSSDSPASASQVAGITGVSDAYSQSLPGKS

> <PDB ID(s) of Target Chain>


> <UniProt (SwissProt) Recommended Name of Target Chain>
Activating signal cointegrator 1 complex subunit 1

> <UniProt (SwissProt) Entry Name of Target Chain>
ASCC1_HUMAN

> <UniProt (SwissProt) Primary ID of Target Chain>
Q8N9N2

> <UniProt (SwissProt) Secondary ID(s) of Target Chain>
Q5SW06 Q5SW07 Q96EI8 Q9Y307

> <UniProt (SwissProt) Alternative ID(s) of Target Chain>


> <UniProt (TrEMBL) Submitted Name of Target Chain>


> <UniProt (TrEMBL) Entry Name of Target Chain>


> <UniProt (TrEMBL) Primary ID of Target Chain>


> <UniProt (TrEMBL) Secondary ID(s) of Target Chain>


> <UniProt (TrEMBL) Alternative ID(s) of Target Chain>


$$$$
00242001.cdx
  Mrv0541 06272400352D          

 33 39  0  0  0  0            999 V2000
   -1.8620    0.8250    0.0000 C   0  0  0  0  0  0  0  0  0  0  0  0
   -1.8620    0.0000    0.0000 C   0  0  0  0  0  0  0  0  0  0  0  0
   -1.1475   -0.4125    0.0000 C   0  0  0  0  0  0  0  0  0  0  0  0
   -0.4331    0.0000    0.0000 C   0  0  0  0  0  0  0  0  0  0  0  0
   -0.4331    0.8250    0.0000 C   0  0  0  0  0  0  0  0  0  0  0  0
   -1.1475    1.2375    0.0000 C   0  0  0  0  0  0  0  0  0  0  0  0
   -0.4331   -0.8250    0.0000 C   0  0  0  0  0  0  0  0  0  0  0  0
    0.2814   -1.2375    0.0000 C   0  0  0  0  0  0  0  0  0  0  0  0
    0.9959   -0.8250    0.0000 N   0  0  0  0  0  0  0  0  0  0  0  0
    0.9959    0.0000    0.0000 C   0  0  0  0  0  0  0  0  0  0  0  0
    0.2814    0.4125    0.0000 C   0  0  0  0  0  0  0  0  0  0  0  0
    1.7103   -1.2375    0.0000 C   0  0  0  0  0  0  0  0  0  0  0  0
    2.4248   -0.8250    0.0000 C   0  0  0  0  0  0  0  0  0  0  0  0
    1.7103   -2.0625    0.0000 O   0  0  0  0  0  0  0  0  0  0  0  0
    3.1393   -1.2375    0.0000 C   0  0  0  0  0  0  0  0  0  0  0  0
    3.8537   -0.8250    0.0000 C   0  0  0  0  0  0  0  0  0  0  0  0
    3.8537    0.0000    0.0000 C   0  0  0  0  0  0  0  0  0  0  0  0
    3.1393    0.4125    0.0000 C   0  0  0  0  0  0  0  0  0  0  0  0
    2.4248    0.0000    0.0000 C   0  0  0  0  0  0  0  0  0  0  0  0
    4.6384   -1.0799    0.0000 C   0  0  0  0  0  0  0  0  0  0  0  0
    5.1233   -0.4125    0.0000 N   0  0  0  0  0  0  0  0  0  0  0  0
    4.6384    0.2549    0.0000 N   0  0  0  0  0  0  0  0  0  0  0  0
    3.1393    1.2375    0.0000 C   0  0  0  0  0  0  0  0  0  0  0  0
    4.8933   -1.8646    0.0000 C   0  0  0  0  0  0  0  0  0  0  0  0
   -1.1475    2.0625    0.0000 O   0  0  0  0  0  0  0  0  0  0  0  0
   -2.6466    1.0799    0.0000 N   0  0  0  0  0  0  0  0  0  0  0  0
   -3.1316    0.4125    0.0000 C   0  0  0  0  0  0  0  0  0  0  0  0
   -2.6466   -0.2549    0.0000 S   0  0  0  0  0  0  0  0  0  0  0  0
   -3.9566    0.4125    0.0000 C   0  0  0  0  0  0  0  0  0  0  0  0
   -4.5399    0.9959    0.0000 C   0  0  0  0  0  0  0  0  0  0  0  0
   -5.1233    0.4125    0.0000 C   0  0  0  0  0  0  0  0  0  0  0  0
   -4.5399   -0.1709    0.0000 C   0  0  0  0  0  0  0  0  0  0  0  0
   -4.5478    0.2739    0.0000 C   0  0  0  0  0  0  0  0  0  0  0  0
  1  2  4  0  0  0  0
  2  3  1  0  0  0  0
  3  4  1  0  0  0  0
  4  5  1  0  0  0  0
  5  6  1  0  0  0  0
  6  1  1  0  0  0  0
  4  7  1  0  0  0  0
  7  8  1  0  0  0  0
  8  9  1  0  0  0  0
  9 10  1  0  0  0  0
 10 11  1  0  0  0  0
 11  4  1  0  0  0  0
  9 12  1  0  0  0  0
 12 13  1  0  0  0  0
 12 14  2  0  0  0  0
 13 15  4  0  0  0  0
 15 16  4  0  0  0  0
 16 17  4  0  0  0  0
 17 18  4  0  0  0  0
 18 19  4  0  0  0  0
 19 13  4  0  0  0  0
 16 20  4  0  0  0  0
 20 21  4  0  0  0  0
 21 22  4  0  0  0  0
 22 17  4  0  0  0  0
 18 23  1  0  0  0  0
 20 24  1  0  0  0  0
  6 25  2  0  0  0  0
  1 26  4  0  0  0  0
 26 27  4  0  0  0  0
 27 28  4  0  0  0  0
 28  2  4  0  0  0  0
 27 29  1  0  0  0  0
 29 30  1  0  0  0  0
 30 31  1  0  0  0  0
 31 32  1  0  0  0  0
 32 29  1  0  0  0  0
 31 33  1  0  0  0  0
 29 33  1  0  0  0  0
M  STY  1   1 DAT
M  SAL   1  1  22
M  SDT   1 MRV_IMPLICIT_H                                        
M  SDD   1     0.0000    0.0000    DR    ALL  0       0  
M  SED   1 IMPL_H1
M  END
> <From>
www.bindingDB.org

> <BindingDB Reactant_set_id>
1397208

> <Ligand InChI>
InChI=1S/C26H28N4O2S/c1-14-7-17(8-18-15(2)28-29-21(14)18)23(32)30-5-3-25(4-6-30)12-19(31)22-20(13-25)33-24(27-22)26-9-16(10-26)11-26/h7-8,16H,3-6,9-13H2,1-2H3,(H,28,29)

> <Ligand InChI Key>
JBOSJLOGSBWPEV-UHFFFAOYSA-N

> <BindingDB MonomerID>
663826

> <BindingDB Ligand Name>
US20240109915, Example 7

> <Target Name>
Activating signal cointegrator 1 complex subunit 1

> <Target Source Organism According to Curator or DataSource>


> <Ki (nM)>


> <IC50 (nM)>
 11.0

> <Kd (nM)>


> <EC50 (nM)>


> <kon (M-1-s-1)>


> <koff (s-1)>


> <pH>


> <Temp C>


> <Curation/DataSource>
US Patent

> <Article DOI>


> <BindingDB Entry DOI>
10.7270/Q2348QQ2

> <PMID>


> <PubChem AID>


> <Patent Number>
US20240109915

> <Authors>
Bagley, SW; Bootsma, AN; Choi, C; Dow, RL; Edmonds, DJ; Garcia-Irizarry, CN; Gerstenberger, BS; Ingle, G; O''Brien, JG; Parikh, MD; Rescourio, GC; Schmitt, DC

> <Institution>
Pfizer

> <Link to Ligand in BindingDB>
http://www.bindingdb.org/bind/chemsearch/marvin/MolStructure.jsp?monomerid=663826

> <Link to Ligand-Target Pair in BindingDB>
http://www.bindingdb.org/jsp/dbsearch/PrimarySearch_ki.jsp?energyterm=kJ/mole&tag=pol&polymerid=735&target=Activating+signal+cointegrator+1+complex+subunit+1&column=ki&startPg=0&Increment=50&submit=Search

> <Link to Ligand-Target Pair in BindingDB>
http://www.bindingdb.org/jsp/dbsearch/PrimarySearch_ki.jsp?energyterm=kJ/mole&tag=r21&monomerid=663826&enzyme=Activating+signal+cointegrator+1+complex+subunit+1&column=ki&startPg=0&Increment=50&submit=Search

> <Ligand HET ID in PDB>


> <PDB ID(s) for Ligand-Target Complex>


> <PubChem CID>


> <PubChem SID>


> <ChEBI ID of Ligand>


> <ChEMBL ID of Ligand>


> <DrugBank ID of Ligand>


> <IUPHAR_GRAC ID of Ligand>


> <KEGG ID of Ligand>


> <ZINC ID of Ligand>


> <Number of Protein Chains in Target (bigger than 1 implies a multichain complex)>
1

> <BindingDB Target Chain Sequence>
MEVLRPQLIRIDGRNYRKNPVQEQTYQHEEDEEDFYQGSMECADEPCDAYEVEQTPQGFRSTLRAPSLLYNLIHLNTSNDCGFQKITLDCQNIYTWKSRHIVGKRGDTRKKIEMETKTSISIPKPGQDGEIVITGQHRNGVISARTRIDVLLDTFRRKQPFTHFLAFFLNEVEVQEGFLRFQEEVLAKCSMDHGVDSSIFQNPKKLHLTIGMLVLLSEEEIQQTCEMLQQCKEEFINDISGGKPLEVEMAGIEYMNDDPGMVDVLYAKVHMKDGSNRLQELVDRVLERFQASGLIVKEWNSVKLHATVMNTLFRKDPNAEGRYNLYTAEGKYIFKERESFDGRNILKSFALLPRLEYNDAISAHCNLCLPGSSDSPASASQVAGITGVSDAYSQSLPGKS

> <PDB ID(s) of Target Chain>


> <UniProt (SwissProt) Recommended Name of Target Chain>
Activating signal cointegrator 1 complex subunit 1

> <UniProt (SwissProt) Entry Name of Target Chain>
ASCC1_HUMAN

> <UniProt (SwissProt) Primary ID of Target Chain>
Q8N9N2

> <UniProt (SwissProt) Secondary ID(s) of Target Chain>
Q5SW06 Q5SW07 Q96EI8 Q9Y307

> <UniProt (SwissProt) Alternative ID(s) of Target Chain>


> <UniProt (TrEMBL) Submitted Name of Target Chain>


> <UniProt (TrEMBL) Entry Name of Target Chain>


> <UniProt (TrEMBL) Primary ID of Target Chain>


> <UniProt (TrEMBL) Secondary ID(s) of Target Chain>


> <UniProt (TrEMBL) Alternative ID(s) of Target Chain>


$$$$
00318001.cdx
  Mrv0541 06272400352D          

 33 37  0  0  0  0            999 V2000
   -4.9524    0.4125    0.0000 C   0  0  0  0  0  0  0  0  0  0  0  0
   -4.1274    0.4125    0.0000 C   0  0  0  0  0  0  0  0  0  0  0  0
   -4.5399    1.1270    0.0000 C   0  0  0  0  0  0  0  0  0  0  0  0
   -4.5399   -0.3020    0.0000 C   0  0  0  0  0  0  0  0  0  0  0  0
   -3.3024    0.4125    0.0000 C   0  0  0  0  0  0  0  0  0  0  0  0
   -2.8175    1.0799    0.0000 N   0  0  0  0  0  0  0  0  0  0  0  0
   -2.8175   -0.2549    0.0000 S   0  0  0  0  0  0  0  0  0  0  0  0
   -0.6039    0.0000    0.0000 C   0  0  0  0  0  0  0  0  0  0  0  0
   -0.6039   -0.8250    0.0000 C   0  0  0  0  0  0  0  0  0  0  0  0
    0.1105   -1.2375    0.0000 C   0  0  0  0  0  0  0  0  0  0  0  0
   -1.3184   -0.4125    0.0000 C   0  0  0  0  0  0  0  0  0  0  0  0
   -2.0329    0.0000    0.0000 C   0  0  0  0  0  0  0  0  0  0  0  0
   -2.0329    0.8250    0.0000 C   0  0  0  0  0  0  0  0  0  0  0  0
   -1.3184    1.2375    0.0000 C   0  0  0  0  0  0  0  0  0  0  0  0
   -1.3184    2.0625    0.0000 O   0  0  0  0  0  0  0  0  0  0  0  0
   -0.6039    0.8250    0.0000 C   0  0  0  0  0  0  0  0  0  0  0  0
    0.1105    0.4125    0.0000 C   0  0  0  0  0  0  0  0  0  0  0  0
    0.8250    0.0000    0.0000 C   0  0  0  0  0  0  0  0  0  0  0  0
    0.8250   -0.8250    0.0000 N   0  0  0  0  0  0  0  0  0  0  0  0
    1.5395   -1.2375    0.0000 C   0  0  0  0  0  0  0  0  0  0  0  0
    1.5395   -2.0625    0.0000 O   0  0  0  0  0  0  0  0  0  0  0  0
    2.2539   -0.8250    0.0000 C   0  0  0  0  0  0  0  0  0  0  0  0
    2.2539    0.0000    0.0000 C   0  0  0  0  0  0  0  0  0  0  0  0
    2.9684    0.4125    0.0000 C   0  0  0  0  0  0  0  0  0  0  0  0
    2.9684    1.2375    0.0000 O   0  0  0  0  0  0  0  0  0  0  0  0
    3.6829    0.0000    0.0000 C   0  0  0  0  0  0  0  0  0  0  0  0
    4.4675    0.2549    0.0000 C   0  0  0  0  0  0  0  0  0  0  0  0
    4.9524   -0.4125    0.0000 C   0  0  0  0  0  0  0  0  0  0  0  0
    4.4675   -1.0799    0.0000 N   0  0  0  0  0  0  0  0  0  0  0  0
    3.6829   -0.8250    0.0000 C   0  0  0  0  0  0  0  0  0  0  0  0
    2.9684   -1.2375    0.0000 C   0  0  0  0  0  0  0  0  0  0  0  0
    2.2539    1.6500    0.0000 C   0  0  0  0  0  0  0  0  0  0  0  0
    4.7224   -1.8646    0.0000 C   0  0  0  0  0  0  0  0  0  0  0  0
  1  2  1  0  0  0  0
  2  3  1  0  0  0  0
  2  4  1  0  0  0  0
  2  5  1  0  0  0  0
  5  6  4  0  0  0  0
  5  7  4  0  0  0  0
  6 13  4  0  0  0  0
  7 12  4  0  0  0  0
  8  9  1  0  0  0  0
  8 11  1  0  0  0  0
  8 16  1  0  0  0  0
  8 17  1  0  0  0  0
  9 10  1  0  0  0  0
 10 19  1  0  0  0  0
 11 12  1  0  0  0  0
 12 13  4  0  0  0  0
 13 14  1  0  0  0  0
 14 15  2  0  0  0  0
 14 16  1  0  0  0  0
 17 18  1  0  0  0  0
 18 19  1  0  0  0  0
 19 20  1  0  0  0  0
 20 21  2  0  0  0  0
 20 22  1  0  0  0  0
 23 22  4  0  0  0  0
 22 31  4  0  0  0  0
 23 24  4  0  0  0  0
 24 25  1  0  0  0  0
 24 26  4  0  0  0  0
 25 32  1  0  0  0  0
 26 27  4  0  0  0  0
 26 30  4  0  0  0  0
 27 28  4  0  0  0  0
 28 29  4  0  0  0  0
 29 30  4  0  0  0  0
 29 33  1  0  0  0  0
 30 31  4  0  0  0  0
M  END
> <From>
www.bindingDB.org

> <BindingDB Reactant_set_id>
1397280

> <Ligand InChI>
InChI=1S/C26H31N3O3S/c1-25(2,3)24-27-22-19(30)14-26(15-21(22)33-24)7-10-29(11-8-26)23(31)16-12-18-17(6-9-28(18)4)20(13-16)32-5/h6,9,12-13H,7-8,10-11,14-15H2,1-5H3

> <Ligand InChI Key>
DKHHYKKNMOXFRX-UHFFFAOYSA-N

> <BindingDB MonomerID>
663898

> <BindingDB Ligand Name>
US20240109915, Example 83

> <Target Name>
Activating signal cointegrator 1 complex subunit 1

> <Target Source Organism According to Curator or DataSource>


> <Ki (nM)>


> <IC50 (nM)>
 11.1

> <Kd (nM)>


> <EC50 (nM)>


> <kon (M-1-s-1)>


> <koff (s-1)>


> <pH>


> <Temp C>


> <Curation/DataSource>
US Patent

> <Article DOI>


> <BindingDB Entry DOI>
10.7270/Q2348QQ2

> <PMID>


> <PubChem AID>


> <Patent Number>
US20240109915

> <Authors>
Bagley, SW; Bootsma, AN; Choi, C; Dow, RL; Edmonds, DJ; Garcia-Irizarry, CN; Gerstenberger, BS; Ingle, G; O''Brien, JG; Parikh, MD; Rescourio, GC; Schmitt, DC

> <Institution>
Pfizer

> <Link to Ligand in BindingDB>
http://www.bindingdb.org/bind/chemsearch/marvin/MolStructure.jsp?monomerid=663898

> <Link to Ligand-Target Pair in BindingDB>
http://www.bindingdb.org/jsp/dbsearch/PrimarySearch_ki.jsp?energyterm=kJ/mole&tag=pol&polymerid=735&target=Activating+signal+cointegrator+1+complex+subunit+1&column=ki&startPg=0&Increment=50&submit=Search

> <Link to Ligand-Target Pair in BindingDB>
http://www.bindingdb.org/jsp/dbsearch/PrimarySearch_ki.jsp?energyterm=kJ/mole&tag=r21&monomerid=663898&enzyme=Activating+signal+cointegrator+1+complex+subunit+1&column=ki&startPg=0&Increment=50&submit=Search

> <Ligand HET ID in PDB>


> <PDB ID(s) for Ligand-Target Complex>


> <PubChem CID>


> <PubChem SID>


> <ChEBI ID of Ligand>


> <ChEMBL ID of Ligand>


> <DrugBank ID of Ligand>


> <IUPHAR_GRAC ID of Ligand>


> <KEGG ID of Ligand>


> <ZINC ID of Ligand>


> <Number of Protein Chains in Target (bigger than 1 implies a multichain complex)>
1

> <BindingDB Target Chain Sequence>
MEVLRPQLIRIDGRNYRKNPVQEQTYQHEEDEEDFYQGSMECADEPCDAYEVEQTPQGFRSTLRAPSLLYNLIHLNTSNDCGFQKITLDCQNIYTWKSRHIVGKRGDTRKKIEMETKTSISIPKPGQDGEIVITGQHRNGVISARTRIDVLLDTFRRKQPFTHFLAFFLNEVEVQEGFLRFQEEVLAKCSMDHGVDSSIFQNPKKLHLTIGMLVLLSEEEIQQTCEMLQQCKEEFINDISGGKPLEVEMAGIEYMNDDPGMVDVLYAKVHMKDGSNRLQELVDRVLERFQASGLIVKEWNSVKLHATVMNTLFRKDPNAEGRYNLYTAEGKYIFKERESFDGRNILKSFALLPRLEYNDAISAHCNLCLPGSSDSPASASQVAGITGVSDAYSQSLPGKS

> <PDB ID(s) of Target Chain>


> <UniProt (SwissProt) Recommended Name of Target Chain>
Activating signal cointegrator 1 complex subunit 1

> <UniProt (SwissProt) Entry Name of Target Chain>
ASCC1_HUMAN

> <UniProt (SwissProt) Primary ID of Target Chain>
Q8N9N2

> <UniProt (SwissProt) Secondary ID(s) of Target Chain>
Q5SW06 Q5SW07 Q96EI8 Q9Y307

> <UniProt (SwissProt) Alternative ID(s) of Target Chain>


> <UniProt (TrEMBL) Submitted Name of Target Chain>


> <UniProt (TrEMBL) Entry Name of Target Chain>


> <UniProt (TrEMBL) Primary ID of Target Chain>


> <UniProt (TrEMBL) Secondary ID(s) of Target Chain>


> <UniProt (TrEMBL) Alternative ID(s) of Target Chain>


$$$$
00264001.cdx
  Mrv0541 06272400352D          

 35 39  0  0  0  0            999 V2000
   -2.1126    1.0313    0.0000 C   0  0  0  0  0  0  0  0  0  0  0  0
   -2.1126    0.2062    0.0000 C   0  0  0  0  0  0  0  0  0  0  0  0
   -1.3981   -0.2062    0.0000 C   0  0  0  0  0  0  0  0  0  0  0  0
   -0.6836    0.2062    0.0000 C   0  0  0  0  0  0  0  0  0  0  0  0
   -0.6836    1.0313    0.0000 C   0  0  0  0  0  0  0  0  0  0  0  0
   -1.3981    1.4437    0.0000 C   0  0  0  0  0  0  0  0  0  0  0  0
   -0.6836   -0.6187    0.0000 C   0  0  0  0  0  0  0  0  0  0  0  0
    0.0308   -1.0313    0.0000 C   0  0  0  0  0  0  0  0  0  0  0  0
    0.7453   -0.6187    0.0000 N   0  0  0  0  0  0  0  0  0  0  0  0
    0.7453    0.2062    0.0000 C   0  0  0  0  0  0  0  0  0  0  0  0
    0.0308    0.6187    0.0000 C   0  0  0  0  0  0  0  0  0  0  0  0
    1.4598   -1.0313    0.0000 C   0  0  0  0  0  0  0  0  0  0  0  0
    2.1742   -0.6187    0.0000 C   0  0  0  0  0  0  0  0  0  0  0  0
    1.4598   -1.8563    0.0000 O   0  0  0  0  0  0  0  0  0  0  0  0
    2.8887   -1.0313    0.0000 C   0  0  0  0  0  0  0  0  0  0  0  0
    3.6032   -0.6187    0.0000 C   0  0  0  0  0  0  0  0  0  0  0  0
    3.6032    0.2062    0.0000 C   0  0  0  0  0  0  0  0  0  0  0  0
    2.8887    0.6187    0.0000 C   0  0  0  0  0  0  0  0  0  0  0  0
    2.1742    0.2062    0.0000 C   0  0  0  0  0  0  0  0  0  0  0  0
   -1.3981    2.2687    0.0000 O   0  0  0  0  0  0  0  0  0  0  0  0
   -2.8972    1.2862    0.0000 N   0  0  0  0  0  0  0  0  0  0  0  0
   -3.3821    0.6187    0.0000 C   0  0  0  0  0  0  0  0  0  0  0  0
   -2.8972   -0.0487    0.0000 S   0  0  0  0  0  0  0  0  0  0  0  0
   -4.2071    0.6187    0.0000 C   0  0  0  0  0  0  0  0  0  0  0  0
   -4.6196    1.3332    0.0000 C   0  0  0  0  0  0  0  0  0  0  0  0
   -4.6196   -0.0957    0.0000 C   0  0  0  0  0  0  0  0  0  0  0  0
   -5.0321    0.6187    0.0000 C   0  0  0  0  0  0  0  0  0  0  0  0
    4.3177   -1.0313    0.0000 C   0  0  0  0  0  0  0  0  0  0  0  0
    5.0321   -0.6187    0.0000 N   0  0  0  0  0  0  0  0  0  0  0  0
    5.0321    0.2062    0.0000 C   0  0  0  0  0  0  0  0  0  0  0  0
    4.3177    0.6187    0.0000 C   0  0  0  0  0  0  0  0  0  0  0  0
    4.3177   -1.8563    0.0000 C   0  0  0  0  0  0  0  0  0  0  0  0
    2.8887    1.4437    0.0000 O   0  0  0  0  0  0  0  0  0  0  0  0
    2.1742    1.8563    0.0000 C   0  0  0  0  0  0  0  0  0  0  0  0
    5.0321   -2.2687    0.0000 C   0  0  0  0  0  0  0  0  0  0  0  0
  1  2  4  0  0  0  0
  2  3  1  0  0  0  0
  3  4  1  0  0  0  0
  4  5  1  0  0  0  0
  5  6  1  0  0  0  0
  6  1  1  0  0  0  0
  4  7  1  0  0  0  0
  7  8  1  0  0  0  0
  8  9  1  0  0  0  0
  9 10  1  0  0  0  0
 10 11  1  0  0  0  0
 11  4  1  0  0  0  0
  9 12  1  0  0  0  0
 12 13  1  0  0  0  0
 12 14  2  0  0  0  0
 13 15  4  0  0  0  0
 15 16  4  0  0  0  0
 16 17  4  0  0  0  0
 17 18  4  0  0  0  0
 18 19  4  0  0  0  0
 19 13  4  0  0  0  0
  6 20  2  0  0  0  0
  1 21  4  0  0  0  0
 21 22  4  0  0  0  0
 22 23  4  0  0  0  0
 23  2  4  0  0  0  0
 22 24  1  0  0  0  0
 24 25  1  0  0  0  0
 24 26  1  0  0  0  0
 24 27  1  0  0  0  0
 16 28  4  0  0  0  0
 28 29  4  0  0  0  0
 29 30  4  0  0  0  0
 30 31  4  0  0  0  0
 31 17  4  0  0  0  0
 28 32  1  0  0  0  0
 18 33  1  0  0  0  0
 33 34  1  0  0  0  0
 32 35  1  0  0  0  0
M  END
> <From>
www.bindingDB.org

> <BindingDB Reactant_set_id>
1397229

> <Ligand InChI>
InChI=1S/C28H33N3O3S/c1-6-20-19-13-17(14-22(34-5)18(19)7-10-29-20)25(33)31-11-8-28(9-12-31)15-21(32)24-23(16-28)35-26(30-24)27(2,3)4/h7,10,13-14H,6,8-9,11-12,15-16H2,1-5H3

> <Ligand InChI Key>
GNWQVHJLQQBJQZ-UHFFFAOYSA-N

> <BindingDB MonomerID>
663847

> <BindingDB Ligand Name>
US20240109915, Example 29

> <Target Name>
Activating signal cointegrator 1 complex subunit 1

> <Target Source Organism According to Curator or DataSource>


> <Ki (nM)>


> <IC50 (nM)>
 11.1

> <Kd (nM)>


> <EC50 (nM)>


> <kon (M-1-s-1)>


> <koff (s-1)>


> <pH>


> <Temp C>


> <Curation/DataSource>
US Patent

> <Article DOI>


> <BindingDB Entry DOI>
10.7270/Q2348QQ2

> <PMID>


> <PubChem AID>


> <Patent Number>
US20240109915

> <Authors>
Bagley, SW; Bootsma, AN; Choi, C; Dow, RL; Edmonds, DJ; Garcia-Irizarry, CN; Gerstenberger, BS; Ingle, G; O''Brien, JG; Parikh, MD; Rescourio, GC; Schmitt, DC

> <Institution>
Pfizer

> <Link to Ligand in BindingDB>
http://www.bindingdb.org/bind/chemsearch/marvin/MolStructure.jsp?monomerid=663847

> <Link to Ligand-Target Pair in BindingDB>
http://www.bindingdb.org/jsp/dbsearch/PrimarySearch_ki.jsp?energyterm=kJ/mole&tag=pol&polymerid=735&target=Activating+signal+cointegrator+1+complex+subunit+1&column=ki&startPg=0&Increment=50&submit=Search

> <Link to Ligand-Target Pair in BindingDB>
http://www.bindingdb.org/jsp/dbsearch/PrimarySearch_ki.jsp?energyterm=kJ/mole&tag=r21&monomerid=663847&enzyme=Activating+signal+cointegrator+1+complex+subunit+1&column=ki&startPg=0&Increment=50&submit=Search

> <Ligand HET ID in PDB>


> <PDB ID(s) for Ligand-Target Complex>


> <PubChem CID>


> <PubChem SID>


> <ChEBI ID of Ligand>


> <ChEMBL ID of Ligand>


> <DrugBank ID of Ligand>


> <IUPHAR_GRAC ID of Ligand>


> <KEGG ID of Ligand>


> <ZINC ID of Ligand>


> <Number of Protein Chains in Target (bigger than 1 implies a multichain complex)>
1

> <BindingDB Target Chain Sequence>
MEVLRPQLIRIDGRNYRKNPVQEQTYQHEEDEEDFYQGSMECADEPCDAYEVEQTPQGFRSTLRAPSLLYNLIHLNTSNDCGFQKITLDCQNIYTWKSRHIVGKRGDTRKKIEMETKTSISIPKPGQDGEIVITGQHRNGVISARTRIDVLLDTFRRKQPFTHFLAFFLNEVEVQEGFLRFQEEVLAKCSMDHGVDSSIFQNPKKLHLTIGMLVLLSEEEIQQTCEMLQQCKEEFINDISGGKPLEVEMAGIEYMNDDPGMVDVLYAKVHMKDGSNRLQELVDRVLERFQASGLIVKEWNSVKLHATVMNTLFRKDPNAEGRYNLYTAEGKYIFKERESFDGRNILKSFALLPRLEYNDAISAHCNLCLPGSSDSPASASQVAGITGVSDAYSQSLPGKS

> <PDB ID(s) of Target Chain>


> <UniProt (SwissProt) Recommended Name of Target Chain>
Activating signal cointegrator 1 complex subunit 1

> <UniProt (SwissProt) Entry Name of Target Chain>
ASCC1_HUMAN

> <UniProt (SwissProt) Primary ID of Target Chain>
Q8N9N2

> <UniProt (SwissProt) Secondary ID(s) of Target Chain>
Q5SW06 Q5SW07 Q96EI8 Q9Y307

> <UniProt (SwissProt) Alternative ID(s) of Target Chain>


> <UniProt (TrEMBL) Submitted Name of Target Chain>


> <UniProt (TrEMBL) Entry Name of Target Chain>


> <UniProt (TrEMBL) Primary ID of Target Chain>


> <UniProt (TrEMBL) Secondary ID(s) of Target Chain>


> <UniProt (TrEMBL) Alternative ID(s) of Target Chain>


$$$$
00316001.cdx
  Mrv0541 06272400352D          

 32 35  0  0  0  0            999 V2000
   -5.0321    0.4125    0.0000 C   0  0  0  0  0  0  0  0  0  0  0  0
   -4.2071    0.4125    0.0000 C   0  0  0  0  0  0  0  0  0  0  0  0
   -4.6196   -0.3020    0.0000 C   0  0  0  0  0  0  0  0  0  0  0  0
   -4.6196    1.1270    0.0000 C   0  0  0  0  0  0  0  0  0  0  0  0
   -3.3821    0.4125    0.0000 C   0  0  0  0  0  0  0  0  0  0  0  0
   -2.8972    1.0799    0.0000 N   0  0  0  0  0  0  0  0  0  0  0  0
   -2.8972   -0.2549    0.0000 S   0  0  0  0  0  0  0  0  0  0  0  0
   -1.3981   -0.4125    0.0000 C   0  0  0  0  0  0  0  0  0  0  0  0
   -0.6836    0.0000    0.0000 C   0  0  0  0  0  0  0  0  0  0  0  0
   -0.6836   -0.8250    0.0000 C   0  0  0  0  0  0  0  0  0  0  0  0
   -2.1126    0.0000    0.0000 C   0  0  0  0  0  0  0  0  0  0  0  0
   -2.1126    0.8250    0.0000 C   0  0  0  0  0  0  0  0  0  0  0  0
   -1.3981    1.2375    0.0000 C   0  0  0  0  0  0  0  0  0  0  0  0
   -1.3981    2.0625    0.0000 O   0  0  0  0  0  0  0  0  0  0  0  0
   -0.6836    0.8250    0.0000 C   0  0  0  0  0  0  0  0  0  0  0  0
    0.0308    0.4125    0.0000 C   0  0  0  0  0  0  0  0  0  0  0  0
    0.7453    0.0000    0.0000 C   0  0  0  0  0  0  0  0  0  0  0  0
    0.7453   -0.8250    0.0000 N   0  0  0  0  0  0  0  0  0  0  0  0
    0.0308   -1.2375    0.0000 C   0  0  0  0  0  0  0  0  0  0  0  0
    2.8887    1.2375    0.0000 O   0  0  0  0  0  0  0  0  0  0  0  0
    3.6032    1.6500    0.0000 C   0  0  0  0  0  0  0  0  0  0  0  0
    1.4598   -1.2375    0.0000 C   0  0  0  0  0  0  0  0  0  0  0  0
    1.4598   -2.0625    0.0000 O   0  0  0  0  0  0  0  0  0  0  0  0
    2.1742   -0.8250    0.0000 C   0  0  0  0  0  0  0  0  0  0  0  0
    2.1742    0.0000    0.0000 C   0  0  0  0  0  0  0  0  0  0  0  0
    2.8887    0.4125    0.0000 C   0  0  0  0  0  0  0  0  0  0  0  0
    3.6032    0.0000    0.0000 C   0  0  0  0  0  0  0  0  0  0  0  0
    4.3177    0.4125    0.0000 C   0  0  0  0  0  0  0  0  0  0  0  0
    3.6032   -0.8250    0.0000 C   0  0  0  0  0  0  0  0  0  0  0  0
    4.3177   -1.2375    0.0000 O   0  0  0  0  0  0  0  0  0  0  0  0
    2.8887   -1.2375    0.0000 C   0  0  0  0  0  0  0  0  0  0  0  0
    5.0321   -0.8250    0.0000 C   0  0  0  0  0  0  0  0  0  0  0  0
  1  2  1  0  0  0  0
  2  3  1  0  0  0  0
  2  4  1  0  0  0  0
  2  5  1  0  0  0  0
  5  6  4  0  0  0  0
  5  7  4  0  0  0  0
  6 12  4  0  0  0  0
  7 11  4  0  0  0  0
  8  9  1  0  0  0  0
  8 11  1  0  0  0  0
  9 10  1  0  0  0  0
  9 15  1  0  0  0  0
  9 16  1  0  0  0  0
 10 19  1  0  0  0  0
 11 12  4  0  0  0  0
 12 13  1  0  0  0  0
 13 14  2  0  0  0  0
 13 15  1  0  0  0  0
 16 17  1  0  0  0  0
 17 18  1  0  0  0  0
 18 19  1  0  0  0  0
 18 22  1  0  0  0  0
 20 21  1  0  0  0  0
 20 26  1  0  0  0  0
 22 23  2  0  0  0  0
 22 24  1  0  0  0  0
 24 25  4  0  0  0  0
 24 31  4  0  0  0  0
 25 26  4  0  0  0  0
 26 27  4  0  0  0  0
 27 28  1  0  0  0  0
 27 29  4  0  0  0  0
 29 30  1  0  0  0  0
 29 31  4  0  0  0  0
 30 32  1  0  0  0  0
M  END
> <From>
www.bindingDB.org

> <BindingDB Reactant_set_id>
1397278

> <Ligand InChI>
InChI=1S/C25H32N2O4S/c1-15-18(30-5)11-16(12-19(15)31-6)22(29)27-9-7-25(8-10-27)13-17(28)21-20(14-25)32-23(26-21)24(2,3)4/h11-12H,7-10,13-14H2,1-6H3

> <Ligand InChI Key>
VBJBODQNKZLXLR-UHFFFAOYSA-N

> <BindingDB MonomerID>
663896

> <BindingDB Ligand Name>
US20240109915, Example 81

> <Target Name>
Activating signal cointegrator 1 complex subunit 1

> <Target Source Organism According to Curator or DataSource>


> <Ki (nM)>


> <IC50 (nM)>
 11.7

> <Kd (nM)>


> <EC50 (nM)>


> <kon (M-1-s-1)>


> <koff (s-1)>


> <pH>


> <Temp C>


> <Curation/DataSource>
US Patent

> <Article DOI>


> <BindingDB Entry DOI>
10.7270/Q2348QQ2

> <PMID>


> <PubChem AID>


> <Patent Number>
US20240109915

> <Authors>
Bagley, SW; Bootsma, AN; Choi, C; Dow, RL; Edmonds, DJ; Garcia-Irizarry, CN; Gerstenberger, BS; Ingle, G; O''Brien, JG; Parikh, MD; Rescourio, GC; Schmitt, DC

> <Institution>
Pfizer

> <Link to Ligand in BindingDB>
http://www.bindingdb.org/bind/chemsearch/marvin/MolStructure.jsp?monomerid=663896

> <Link to Ligand-Target Pair in BindingDB>
http://www.bindingdb.org/jsp/dbsearch/PrimarySearch_ki.jsp?energyterm=kJ/mole&tag=pol&polymerid=735&target=Activating+signal+cointegrator+1+complex+subunit+1&column=ki&startPg=0&Increment=50&submit=Search

> <Link to Ligand-Target Pair in BindingDB>
http://www.bindingdb.org/jsp/dbsearch/PrimarySearch_ki.jsp?energyterm=kJ/mole&tag=r21&monomerid=663896&enzyme=Activating+signal+cointegrator+1+complex+subunit+1&column=ki&startPg=0&Increment=50&submit=Search

> <Ligand HET ID in PDB>


> <PDB ID(s) for Ligand-Target Complex>


> <PubChem CID>


> <PubChem SID>


> <ChEBI ID of Ligand>


> <ChEMBL ID of Ligand>


> <DrugBank ID of Ligand>


> <IUPHAR_GRAC ID of Ligand>


> <KEGG ID of Ligand>


> <ZINC ID of Ligand>


> <Number of Protein Chains in Target (bigger than 1 implies a multichain complex)>
1

> <BindingDB Target Chain Sequence>
MEVLRPQLIRIDGRNYRKNPVQEQTYQHEEDEEDFYQGSMECADEPCDAYEVEQTPQGFRSTLRAPSLLYNLIHLNTSNDCGFQKITLDCQNIYTWKSRHIVGKRGDTRKKIEMETKTSISIPKPGQDGEIVITGQHRNGVISARTRIDVLLDTFRRKQPFTHFLAFFLNEVEVQEGFLRFQEEVLAKCSMDHGVDSSIFQNPKKLHLTIGMLVLLSEEEIQQTCEMLQQCKEEFINDISGGKPLEVEMAGIEYMNDDPGMVDVLYAKVHMKDGSNRLQELVDRVLERFQASGLIVKEWNSVKLHATVMNTLFRKDPNAEGRYNLYTAEGKYIFKERESFDGRNILKSFALLPRLEYNDAISAHCNLCLPGSSDSPASASQVAGITGVSDAYSQSLPGKS

> <PDB ID(s) of Target Chain>


> <UniProt (SwissProt) Recommended Name of Target Chain>
Activating signal cointegrator 1 complex subunit 1

> <UniProt (SwissProt) Entry Name of Target Chain>
ASCC1_HUMAN

> <UniProt (SwissProt) Primary ID of Target Chain>
Q8N9N2

> <UniProt (SwissProt) Secondary ID(s) of Target Chain>
Q5SW06 Q5SW07 Q96EI8 Q9Y307

> <UniProt (SwissProt) Alternative ID(s) of Target Chain>


> <UniProt (TrEMBL) Submitted Name of Target Chain>


> <UniProt (TrEMBL) Entry Name of Target Chain>


> <UniProt (TrEMBL) Primary ID of Target Chain>


> <UniProt (TrEMBL) Secondary ID(s) of Target Chain>


> <UniProt (TrEMBL) Alternative ID(s) of Target Chain>


$$$$
00299001.cdx
  Mrv0541 06272400352D          

 31 35  0  0  0  0            999 V2000
   -4.9524    0.4125    0.0000 C   0  0  0  0  0  0  0  0  0  0  0  0
   -4.1274    0.4125    0.0000 C   0  0  0  0  0  0  0  0  0  0  0  0
   -4.5399   -0.3020    0.0000 C   0  0  0  0  0  0  0  0  0  0  0  0
   -4.5399    1.1270    0.0000 C   0  0  0  0  0  0  0  0  0  0  0  0
   -3.3024    0.4125    0.0000 C   0  0  0  0  0  0  0  0  0  0  0  0
   -2.8175    1.0799    0.0000 N   0  0  0  0  0  0  0  0  0  0  0  0
   -2.8175   -0.2549    0.0000 S   0  0  0  0  0  0  0  0  0  0  0  0
   -1.3184   -0.4125    0.0000 C   0  0  0  0  0  0  0  0  0  0  0  0
   -0.6039    0.0000    0.0000 C   0  0  0  0  0  0  0  0  0  0  0  0
   -0.6039   -0.8250    0.0000 C   0  0  0  0  0  0  0  0  0  0  0  0
   -2.0329    0.0000    0.0000 C   0  0  0  0  0  0  0  0  0  0  0  0
   -2.0329    0.8250    0.0000 C   0  0  0  0  0  0  0  0  0  0  0  0
   -1.3184    1.2375    0.0000 C   0  0  0  0  0  0  0  0  0  0  0  0
   -1.3184    2.0625    0.0000 O   0  0  0  0  0  0  0  0  0  0  0  0
   -0.6039    0.8250    0.0000 C   0  0  0  0  0  0  0  0  0  0  0  0
    0.1105    0.4125    0.0000 C   0  0  0  0  0  0  0  0  0  0  0  0
    0.8250    0.0000    0.0000 C   0  0  0  0  0  0  0  0  0  0  0  0
    0.8250   -0.8250    0.0000 N   0  0  0  0  0  0  0  0  0  0  0  0
    0.1105   -1.2375    0.0000 C   0  0  0  0  0  0  0  0  0  0  0  0
    2.9684   -1.2375    0.0000 C   0  0  0  0  0  0  0  0  0  0  0  0
    3.6829   -0.8250    0.0000 C   0  0  0  0  0  0  0  0  0  0  0  0
    4.4675   -1.0799    0.0000 C   0  0  0  0  0  0  0  0  0  0  0  0
    2.2539   -0.8250    0.0000 C   0  0  0  0  0  0  0  0  0  0  0  0
    1.5395   -1.2375    0.0000 C   0  0  0  0  0  0  0  0  0  0  0  0
    1.5395   -2.0625    0.0000 O   0  0  0  0  0  0  0  0  0  0  0  0
    2.2539    0.0000    0.0000 C   0  0  0  0  0  0  0  0  0  0  0  0
    2.9684    0.4125    0.0000 C   0  0  0  0  0  0  0  0  0  0  0  0
    3.6829    0.0000    0.0000 C   0  0  0  0  0  0  0  0  0  0  0  0
    4.9524   -0.4125    0.0000 C   0  0  0  0  0  0  0  0  0  0  0  0
    4.4675    0.2549    0.0000 N   0  0  0  0  0  0  0  0  0  0  0  0
    4.7224   -1.8646    0.0000 C   0  0  0  0  0  0  0  0  0  0  0  0
  1  2  1  0  0  0  0
  2  3  1  0  0  0  0
  2  4  1  0  0  0  0
  2  5  1  0  0  0  0
  5  6  4  0  0  0  0
  5  7  4  0  0  0  0
  6 12  4  0  0  0  0
  7 11  4  0  0  0  0
  8  9  1  0  0  0  0
  8 11  1  0  0  0  0
  9 10  1  0  0  0  0
  9 15  1  0  0  0  0
  9 16  1  0  0  0  0
 10 19  1  0  0  0  0
 11 12  4  0  0  0  0
 12 13  1  0  0  0  0
 13 14  2  0  0  0  0
 13 15  1  0  0  0  0
 16 17  1  0  0  0  0
 17 18  1  0  0  0  0
 18 19  1  0  0  0  0
 18 24  1  0  0  0  0
 20 21  4  0  0  0  0
 20 23  4  0  0  0  0
 21 22  4  0  0  0  0
 21 28  4  0  0  0  0
 22 29  4  0  0  0  0
 22 31  1  0  0  0  0
 23 24  1  0  0  0  0
 23 26  4  0  0  0  0
 24 25  2  0  0  0  0
 26 27  4  0  0  0  0
 27 28  4  0  0  0  0
 28 30  4  0  0  0  0
 29 30  4  0  0  0  0
M  STY  1   1 DAT
M  SAL   1  1  30
M  SDT   1 MRV_IMPLICIT_H                                        
M  SDD   1     0.0000    0.0000    DR    ALL  0       0  
M  SED   1 IMPL_H1
M  END
> <From>
www.bindingDB.org

> <BindingDB Reactant_set_id>
1397262

> <Ligand InChI>
InChI=1S/C25H29N3O2S/c1-15-14-26-18-6-5-16(11-17(15)18)22(30)28-9-7-25(8-10-28)12-19(29)21-20(13-25)31-23(27-21)24(2,3)4/h5-6,11,14,26H,7-10,12-13H2,1-4H3

> <Ligand InChI Key>
FKAJAPMXOHLNCR-UHFFFAOYSA-N

> <BindingDB MonomerID>
663880

> <BindingDB Ligand Name>
US20240109915, Example 64

> <Target Name>
Activating signal cointegrator 1 complex subunit 1

> <Target Source Organism According to Curator or DataSource>


> <Ki (nM)>


> <IC50 (nM)>
 11.8

> <Kd (nM)>


> <EC50 (nM)>


> <kon (M-1-s-1)>


> <koff (s-1)>


> <pH>


> <Temp C>


> <Curation/DataSource>
US Patent

> <Article DOI>


> <BindingDB Entry DOI>
10.7270/Q2348QQ2

> <PMID>


> <PubChem AID>


> <Patent Number>
US20240109915

> <Authors>
Bagley, SW; Bootsma, AN; Choi, C; Dow, RL; Edmonds, DJ; Garcia-Irizarry, CN; Gerstenberger, BS; Ingle, G; O''Brien, JG; Parikh, MD; Rescourio, GC; Schmitt, DC

> <Institution>
Pfizer

> <Link to Ligand in BindingDB>
http://www.bindingdb.org/bind/chemsearch/marvin/MolStructure.jsp?monomerid=663880

> <Link to Ligand-Target Pair in BindingDB>
http://www.bindingdb.org/jsp/dbsearch/PrimarySearch_ki.jsp?energyterm=kJ/mole&tag=pol&polymerid=735&target=Activating+signal+cointegrator+1+complex+subunit+1&column=ki&startPg=0&Increment=50&submit=Search

> <Link to Ligand-Target Pair in BindingDB>
http://www.bindingdb.org/jsp/dbsearch/PrimarySearch_ki.jsp?energyterm=kJ/mole&tag=r21&monomerid=663880&enzyme=Activating+signal+cointegrator+1+complex+subunit+1&column=ki&startPg=0&Increment=50&submit=Search

> <Ligand HET ID in PDB>


> <PDB ID(s) for Ligand-Target Complex>


> <PubChem CID>


> <PubChem SID>


> <ChEBI ID of Ligand>


> <ChEMBL ID of Ligand>


> <DrugBank ID of Ligand>


> <IUPHAR_GRAC ID of Ligand>


> <KEGG ID of Ligand>


> <ZINC ID of Ligand>


> <Number of Protein Chains in Target (bigger than 1 implies a multichain complex)>
1

> <BindingDB Target Chain Sequence>
MEVLRPQLIRIDGRNYRKNPVQEQTYQHEEDEEDFYQGSMECADEPCDAYEVEQTPQGFRSTLRAPSLLYNLIHLNTSNDCGFQKITLDCQNIYTWKSRHIVGKRGDTRKKIEMETKTSISIPKPGQDGEIVITGQHRNGVISARTRIDVLLDTFRRKQPFTHFLAFFLNEVEVQEGFLRFQEEVLAKCSMDHGVDSSIFQNPKKLHLTIGMLVLLSEEEIQQTCEMLQQCKEEFINDISGGKPLEVEMAGIEYMNDDPGMVDVLYAKVHMKDGSNRLQELVDRVLERFQASGLIVKEWNSVKLHATVMNTLFRKDPNAEGRYNLYTAEGKYIFKERESFDGRNILKSFALLPRLEYNDAISAHCNLCLPGSSDSPASASQVAGITGVSDAYSQSLPGKS

> <PDB ID(s) of Target Chain>


> <UniProt (SwissProt) Recommended Name of Target Chain>
Activating signal cointegrator 1 complex subunit 1

> <UniProt (SwissProt) Entry Name of Target Chain>
ASCC1_HUMAN

> <UniProt (SwissProt) Primary ID of Target Chain>
Q8N9N2

> <UniProt (SwissProt) Secondary ID(s) of Target Chain>
Q5SW06 Q5SW07 Q96EI8 Q9Y307

> <UniProt (SwissProt) Alternative ID(s) of Target Chain>


> <UniProt (TrEMBL) Submitted Name of Target Chain>


> <UniProt (TrEMBL) Entry Name of Target Chain>


> <UniProt (TrEMBL) Primary ID of Target Chain>


> <UniProt (TrEMBL) Secondary ID(s) of Target Chain>


> <UniProt (TrEMBL) Alternative ID(s) of Target Chain>


$$$$
00342001.cdx
  Mrv0541 06272400352D          

 34 38  0  0  0  0            999 V2000
   -3.3024    0.6201    0.0000 C   0  0  0  0  0  0  0  0  0  0  0  0
   -2.8175    1.2875    0.0000 N   0  0  0  0  0  0  0  0  0  0  0  0
   -4.1274    0.6201    0.0000 C   0  0  0  0  0  0  0  0  0  0  0  0
   -2.8175   -0.0474    0.0000 S   0  0  0  0  0  0  0  0  0  0  0  0
   -4.9524    0.6201    0.0000 C   0  0  0  0  0  0  0  0  0  0  0  0
   -4.5399    1.3345    0.0000 C   0  0  0  0  0  0  0  0  0  0  0  0
   -4.5399   -0.0944    0.0000 C   0  0  0  0  0  0  0  0  0  0  0  0
   -2.0329    0.2076    0.0000 C   0  0  0  0  0  0  0  0  0  0  0  0
   -2.0329    1.0326    0.0000 C   0  0  0  0  0  0  0  0  0  0  0  0
   -1.3184   -0.2049    0.0000 C   0  0  0  0  0  0  0  0  0  0  0  0
   -1.3184    1.4451    0.0000 C   0  0  0  0  0  0  0  0  0  0  0  0
   -1.3184    2.2701    0.0000 O   0  0  0  0  0  0  0  0  0  0  0  0
   -0.6039    1.0326    0.0000 C   0  0  0  0  0  0  0  0  0  0  0  0
   -0.6039    0.2076    0.0000 C   0  0  0  0  0  0  0  0  0  0  0  0
    0.1105    0.6201    0.0000 C   0  0  0  0  0  0  0  0  0  0  0  0
    0.8250    0.2076    0.0000 C   0  0  0  0  0  0  0  0  0  0  0  0
    0.8250   -0.6174    0.0000 N   0  0  0  0  0  0  0  0  0  0  0  0
   -0.6039   -0.6174    0.0000 C   0  0  0  0  0  0  0  0  0  0  0  0
    0.1105   -1.0299    0.0000 C   0  0  0  0  0  0  0  0  0  0  0  0
    2.2539    1.8576    0.0000 C   0  0  0  0  0  0  0  0  0  0  0  0
    2.9684    1.4451    0.0000 O   0  0  0  0  0  0  0  0  0  0  0  0
    4.4675    0.4625    0.0000 N   0  0  0  0  0  0  0  0  0  0  0  0
    4.9524   -0.2049    0.0000 N   0  0  0  0  0  0  0  0  0  0  0  0
    3.6829   -0.6174    0.0000 C   0  0  0  0  0  0  0  0  0  0  0  0
    4.4675   -0.8724    0.0000 C   0  0  0  0  0  0  0  0  0  0  0  0
    3.6829    0.2076    0.0000 C   0  0  0  0  0  0  0  0  0  0  0  0
    2.9684    0.6201    0.0000 C   0  0  0  0  0  0  0  0  0  0  0  0
    2.9684   -1.0299    0.0000 C   0  0  0  0  0  0  0  0  0  0  0  0
    2.2539   -0.6174    0.0000 C   0  0  0  0  0  0  0  0  0  0  0  0
    1.5395   -1.0299    0.0000 C   0  0  0  0  0  0  0  0  0  0  0  0
    1.5395   -1.8549    0.0000 O   0  0  0  0  0  0  0  0  0  0  0  0
    2.2539    0.2076    0.0000 C   0  0  0  0  0  0  0  0  0  0  0  0
    4.7224   -1.6570    0.0000 C   0  0  0  0  0  0  0  0  0  0  0  0
    4.1704   -2.2701    0.0000 C   0  0  0  0  0  0  0  0  0  0  0  0
  1  2  4  0  0  0  0
  1  3  1  0  0  0  0
  1  4  4  0  0  0  0
  2  9  4  0  0  0  0
  3  5  1  0  0  0  0
  3  6  1  0  0  0  0
  3  7  1  0  0  0  0
  4  8  4  0  0  0  0
  8  9  4  0  0  0  0
  8 10  1  0  0  0  0
  9 11  1  0  0  0  0
 10 14  1  0  0  0  0
 11 12  2  0  0  0  0
 11 13  1  0  0  0  0
 13 14  1  0  0  0  0
 14 15  1  0  0  0  0
 14 18  1  0  0  0  0
 15 16  1  0  0  0  0
 16 17  1  0  0  0  0
 17 19  1  0  0  0  0
 17 30  1  0  0  0  0
 18 19  1  0  0  0  0
 20 21  1  0  0  0  0
 21 27  1  0  0  0  0
 22 23  4  0  0  0  0
 22 26  4  0  0  0  0
 23 25  4  0  0  0  0
 24 25  4  0  0  0  0
 24 26  4  0  0  0  0
 24 28  4  0  0  0  0
 26 27  4  0  0  0  0
 27 32  4  0  0  0  0
 28 29  4  0  0  0  0
 29 30  1  0  0  0  0
 29 32  4  0  0  0  0
 30 31  2  0  0  0  0
 25 33  1  0  0  0  0
 33 34  1  0  0  0  0
M  STY  1   1 DAT
M  SAL   1  1  22
M  SDT   1 MRV_IMPLICIT_H                                        
M  SDD   1     0.0000    0.0000    DR    ALL  0       0  
M  SED   1 IMPL_H1
M  END
> <From>
www.bindingDB.org

> <BindingDB Reactant_set_id>
1397304

> <Ligand InChI>
InChI=1S/C26H32N4O3S/c1-6-17-16-11-15(12-19(33-5)21(16)29-28-17)23(32)30-9-7-26(8-10-30)13-18(31)22-20(14-26)34-24(27-22)25(2,3)4/h11-12H,6-10,13-14H2,1-5H3,(H,28,29)

> <Ligand InChI Key>
QOLMECZJRPWJOT-UHFFFAOYSA-N

> <BindingDB MonomerID>
663922

> <BindingDB Ligand Name>
US20240109915, Example 107

> <Target Name>
Activating signal cointegrator 1 complex subunit 1

> <Target Source Organism According to Curator or DataSource>


> <Ki (nM)>


> <IC50 (nM)>
 12.3

> <Kd (nM)>


> <EC50 (nM)>


> <kon (M-1-s-1)>


> <koff (s-1)>


> <pH>


> <Temp C>


> <Curation/DataSource>
US Patent

> <Article DOI>


> <BindingDB Entry DOI>
10.7270/Q2348QQ2

> <PMID>


> <PubChem AID>


> <Patent Number>
US20240109915

> <Authors>
Bagley, SW; Bootsma, AN; Choi, C; Dow, RL; Edmonds, DJ; Garcia-Irizarry, CN; Gerstenberger, BS; Ingle, G; O''Brien, JG; Parikh, MD; Rescourio, GC; Schmitt, DC

> <Institution>
Pfizer

> <Link to Ligand in BindingDB>
http://www.bindingdb.org/bind/chemsearch/marvin/MolStructure.jsp?monomerid=663922

> <Link to Ligand-Target Pair in BindingDB>
http://www.bindingdb.org/jsp/dbsearch/PrimarySearch_ki.jsp?energyterm=kJ/mole&tag=pol&polymerid=735&target=Activating+signal+cointegrator+1+complex+subunit+1&column=ki&startPg=0&Increment=50&submit=Search

> <Link to Ligand-Target Pair in BindingDB>
http://www.bindingdb.org/jsp/dbsearch/PrimarySearch_ki.jsp?energyterm=kJ/mole&tag=r21&monomerid=663922&enzyme=Activating+signal+cointegrator+1+complex+subunit+1&column=ki&startPg=0&Increment=50&submit=Search

> <Ligand HET ID in PDB>


> <PDB ID(s) for Ligand-Target Complex>


> <PubChem CID>


> <PubChem SID>


> <ChEBI ID of Ligand>


> <ChEMBL ID of Ligand>


> <DrugBank ID of Ligand>


> <IUPHAR_GRAC ID of Ligand>


> <KEGG ID of Ligand>


> <ZINC ID of Ligand>


> <Number of Protein Chains in Target (bigger than 1 implies a multichain complex)>
1

> <BindingDB Target Chain Sequence>
MEVLRPQLIRIDGRNYRKNPVQEQTYQHEEDEEDFYQGSMECADEPCDAYEVEQTPQGFRSTLRAPSLLYNLIHLNTSNDCGFQKITLDCQNIYTWKSRHIVGKRGDTRKKIEMETKTSISIPKPGQDGEIVITGQHRNGVISARTRIDVLLDTFRRKQPFTHFLAFFLNEVEVQEGFLRFQEEVLAKCSMDHGVDSSIFQNPKKLHLTIGMLVLLSEEEIQQTCEMLQQCKEEFINDISGGKPLEVEMAGIEYMNDDPGMVDVLYAKVHMKDGSNRLQELVDRVLERFQASGLIVKEWNSVKLHATVMNTLFRKDPNAEGRYNLYTAEGKYIFKERESFDGRNILKSFALLPRLEYNDAISAHCNLCLPGSSDSPASASQVAGITGVSDAYSQSLPGKS

> <PDB ID(s) of Target Chain>


> <UniProt (SwissProt) Recommended Name of Target Chain>
Activating signal cointegrator 1 complex subunit 1

> <UniProt (SwissProt) Entry Name of Target Chain>
ASCC1_HUMAN

> <UniProt (SwissProt) Primary ID of Target Chain>
Q8N9N2

> <UniProt (SwissProt) Secondary ID(s) of Target Chain>
Q5SW06 Q5SW07 Q96EI8 Q9Y307

> <UniProt (SwissProt) Alternative ID(s) of Target Chain>


> <UniProt (TrEMBL) Submitted Name of Target Chain>


> <UniProt (TrEMBL) Entry Name of Target Chain>


> <UniProt (TrEMBL) Primary ID of Target Chain>


> <UniProt (TrEMBL) Secondary ID(s) of Target Chain>


> <UniProt (TrEMBL) Alternative ID(s) of Target Chain>


$$$$
00341001.cdx
  Mrv0541 06272400352D          

 32 36  0  0  0  0            999 V2000
   -3.3024    0.4125    0.0000 C   0  0  0  0  0  0  0  0  0  0  0  0
   -2.8175    1.0799    0.0000 N   0  0  0  0  0  0  0  0  0  0  0  0
   -4.1274    0.4125    0.0000 C   0  0  0  0  0  0  0  0  0  0  0  0
   -2.8175   -0.2549    0.0000 S   0  0  0  0  0  0  0  0  0  0  0  0
   -4.9524    0.4125    0.0000 C   0  0  0  0  0  0  0  0  0  0  0  0
   -4.5399    1.1270    0.0000 C   0  0  0  0  0  0  0  0  0  0  0  0
   -4.5399   -0.3020    0.0000 C   0  0  0  0  0  0  0  0  0  0  0  0
   -2.0329    0.0000    0.0000 C   0  0  0  0  0  0  0  0  0  0  0  0
   -2.0329    0.8250    0.0000 C   0  0  0  0  0  0  0  0  0  0  0  0
   -1.3184   -0.4125    0.0000 C   0  0  0  0  0  0  0  0  0  0  0  0
   -1.3184    1.2375    0.0000 C   0  0  0  0  0  0  0  0  0  0  0  0
   -1.3184    2.0625    0.0000 O   0  0  0  0  0  0  0  0  0  0  0  0
   -0.6039    0.8250    0.0000 C   0  0  0  0  0  0  0  0  0  0  0  0
   -0.6039    0.0000    0.0000 C   0  0  0  0  0  0  0  0  0  0  0  0
    0.1105    0.4125    0.0000 C   0  0  0  0  0  0  0  0  0  0  0  0
    0.8250    0.0000    0.0000 C   0  0  0  0  0  0  0  0  0  0  0  0
    0.8250   -0.8250    0.0000 N   0  0  0  0  0  0  0  0  0  0  0  0
   -0.6039   -0.8250    0.0000 C   0  0  0  0  0  0  0  0  0  0  0  0
    0.1105   -1.2375    0.0000 C   0  0  0  0  0  0  0  0  0  0  0  0
    2.9684    1.2375    0.0000 O   0  0  0  0  0  0  0  0  0  0  0  0
    2.2539    1.6500    0.0000 C   0  0  0  0  0  0  0  0  0  0  0  0
    2.9684    0.4125    0.0000 C   0  0  0  0  0  0  0  0  0  0  0  0
    3.6829    0.0000    0.0000 C   0  0  0  0  0  0  0  0  0  0  0  0
    2.2539    0.0000    0.0000 C   0  0  0  0  0  0  0  0  0  0  0  0
    3.6829   -0.8250    0.0000 C   0  0  0  0  0  0  0  0  0  0  0  0
    2.9684   -1.2375    0.0000 C   0  0  0  0  0  0  0  0  0  0  0  0
    2.2539   -0.8250    0.0000 C   0  0  0  0  0  0  0  0  0  0  0  0
    1.5395   -1.2375    0.0000 C   0  0  0  0  0  0  0  0  0  0  0  0
    1.5395   -2.0625    0.0000 O   0  0  0  0  0  0  0  0  0  0  0  0
    4.4675   -1.0799    0.0000 C   0  0  0  0  0  0  0  0  0  0  0  0
    4.9524   -0.4125    0.0000 C   0  0  0  0  0  0  0  0  0  0  0  0
    4.4675    0.2549    0.0000 N   0  0  0  0  0  0  0  0  0  0  0  0
  1  2  4  0  0  0  0
  1  3  1  0  0  0  0
  1  4  4  0  0  0  0
  2  9  4  0  0  0  0
  3  5  1  0  0  0  0
  3  6  1  0  0  0  0
  3  7  1  0  0  0  0
  4  8  4  0  0  0  0
  8  9  4  0  0  0  0
  8 10  1  0  0  0  0
  9 11  1  0  0  0  0
 10 14  1  0  0  0  0
 11 12  2  0  0  0  0
 11 13  1  0  0  0  0
 13 14  1  0  0  0  0
 14 15  1  0  0  0  0
 14 18  1  0  0  0  0
 15 16  1  0  0  0  0
 16 17  1  0  0  0  0
 17 19  1  0  0  0  0
 17 28  1  0  0  0  0
 18 19  1  0  0  0  0
 20 21  1  0  0  0  0
 20 22  1  0  0  0  0
 22 23  4  0  0  0  0
 22 24  4  0  0  0  0
 23 32  4  0  0  0  0
 23 25  4  0  0  0  0
 24 27  4  0  0  0  0
 25 26  4  0  0  0  0
 25 30  4  0  0  0  0
 26 27  4  0  0  0  0
 27 28  1  0  0  0  0
 28 29  2  0  0  0  0
 30 31  4  0  0  0  0
 31 32  4  0  0  0  0
M  STY  1   1 DAT
M  SAL   1  1  32
M  SDT   1 MRV_IMPLICIT_H                                        
M  SDD   1     0.0000    0.0000    DR    ALL  0       0  
M  SED   1 IMPL_H1
M  END
> <From>
www.bindingDB.org

> <BindingDB Reactant_set_id>
1397303

> <Ligand InChI>
InChI=1S/C25H29N3O3S/c1-24(2,3)23-27-21-17(29)13-25(14-19(21)32-23)6-9-28(10-7-25)22(30)16-11-15-5-8-26-20(15)18(12-16)31-4/h5,8,11-12,26H,6-7,9-10,13-14H2,1-4H3

> <Ligand InChI Key>
KRSREZJZRISFNN-UHFFFAOYSA-N

> <BindingDB MonomerID>
663921

> <BindingDB Ligand Name>
US20240109915, Example 106

> <Target Name>
Activating signal cointegrator 1 complex subunit 1

> <Target Source Organism According to Curator or DataSource>


> <Ki (nM)>


> <IC50 (nM)>
 12.9

> <Kd (nM)>


> <EC50 (nM)>


> <kon (M-1-s-1)>


> <koff (s-1)>


> <pH>


> <Temp C>


> <Curation/DataSource>
US Patent

> <Article DOI>


> <BindingDB Entry DOI>
10.7270/Q2348QQ2

> <PMID>


> <PubChem AID>


> <Patent Number>
US20240109915

> <Authors>
Bagley, SW; Bootsma, AN; Choi, C; Dow, RL; Edmonds, DJ; Garcia-Irizarry, CN; Gerstenberger, BS; Ingle, G; O''Brien, JG; Parikh, MD; Rescourio, GC; Schmitt, DC

> <Institution>
Pfizer

> <Link to Ligand in BindingDB>
http://www.bindingdb.org/bind/chemsearch/marvin/MolStructure.jsp?monomerid=663921

> <Link to Ligand-Target Pair in BindingDB>
http://www.bindingdb.org/jsp/dbsearch/PrimarySearch_ki.jsp?energyterm=kJ/mole&tag=pol&polymerid=735&target=Activating+signal+cointegrator+1+complex+subunit+1&column=ki&startPg=0&Increment=50&submit=Search

> <Link to Ligand-Target Pair in BindingDB>
http://www.bindingdb.org/jsp/dbsearch/PrimarySearch_ki.jsp?energyterm=kJ/mole&tag=r21&monomerid=663921&enzyme=Activating+signal+cointegrator+1+complex+subunit+1&column=ki&startPg=0&Increment=50&submit=Search

> <Ligand HET ID in PDB>


> <PDB ID(s) for Ligand-Target Complex>


> <PubChem CID>


> <PubChem SID>


> <ChEBI ID of Ligand>


> <ChEMBL ID of Ligand>


> <DrugBank ID of Ligand>


> <IUPHAR_GRAC ID of Ligand>


> <KEGG ID of Ligand>


> <ZINC ID of Ligand>


> <Number of Protein Chains in Target (bigger than 1 implies a multichain complex)>
1

> <BindingDB Target Chain Sequence>
MEVLRPQLIRIDGRNYRKNPVQEQTYQHEEDEEDFYQGSMECADEPCDAYEVEQTPQGFRSTLRAPSLLYNLIHLNTSNDCGFQKITLDCQNIYTWKSRHIVGKRGDTRKKIEMETKTSISIPKPGQDGEIVITGQHRNGVISARTRIDVLLDTFRRKQPFTHFLAFFLNEVEVQEGFLRFQEEVLAKCSMDHGVDSSIFQNPKKLHLTIGMLVLLSEEEIQQTCEMLQQCKEEFINDISGGKPLEVEMAGIEYMNDDPGMVDVLYAKVHMKDGSNRLQELVDRVLERFQASGLIVKEWNSVKLHATVMNTLFRKDPNAEGRYNLYTAEGKYIFKERESFDGRNILKSFALLPRLEYNDAISAHCNLCLPGSSDSPASASQVAGITGVSDAYSQSLPGKS

> <PDB ID(s) of Target Chain>


> <UniProt (SwissProt) Recommended Name of Target Chain>
Activating signal cointegrator 1 complex subunit 1

> <UniProt (SwissProt) Entry Name of Target Chain>
ASCC1_HUMAN

> <UniProt (SwissProt) Primary ID of Target Chain>
Q8N9N2

> <UniProt (SwissProt) Secondary ID(s) of Target Chain>
Q5SW06 Q5SW07 Q96EI8 Q9Y307

> <UniProt (SwissProt) Alternative ID(s) of Target Chain>


> <UniProt (TrEMBL) Submitted Name of Target Chain>


> <UniProt (TrEMBL) Entry Name of Target Chain>


> <UniProt (TrEMBL) Primary ID of Target Chain>


> <UniProt (TrEMBL) Secondary ID(s) of Target Chain>


> <UniProt (TrEMBL) Alternative ID(s) of Target Chain>


$$$$
00300001.cdx
  Mrv0541 06272400352D          

 31 35  0  0  0  0            999 V2000
   -4.9524    0.4125    0.0000 C   0  0  0  0  0  0  0  0  0  0  0  0
   -4.1274    0.4125    0.0000 C   0  0  0  0  0  0  0  0  0  0  0  0
   -4.5399   -0.3020    0.0000 C   0  0  0  0  0  0  0  0  0  0  0  0
   -4.5399    1.1270    0.0000 C   0  0  0  0  0  0  0  0  0  0  0  0
   -3.3024    0.4125    0.0000 C   0  0  0  0  0  0  0  0  0  0  0  0
   -2.8175    1.0799    0.0000 N   0  0  0  0  0  0  0  0  0  0  0  0
   -2.8175   -0.2549    0.0000 S   0  0  0  0  0  0  0  0  0  0  0  0
   -0.6039    0.0000    0.0000 C   0  0  0  0  0  0  0  0  0  0  0  0
   -0.6039   -0.8250    0.0000 C   0  0  0  0  0  0  0  0  0  0  0  0
    0.1105   -1.2375    0.0000 C   0  0  0  0  0  0  0  0  0  0  0  0
   -1.3184   -0.4125    0.0000 C   0  0  0  0  0  0  0  0  0  0  0  0
   -2.0329    0.0000    0.0000 C   0  0  0  0  0  0  0  0  0  0  0  0
   -2.0329    0.8250    0.0000 C   0  0  0  0  0  0  0  0  0  0  0  0
   -1.3184    1.2375    0.0000 C   0  0  0  0  0  0  0  0  0  0  0  0
   -1.3184    2.0625    0.0000 O   0  0  0  0  0  0  0  0  0  0  0  0
   -0.6039    0.8250    0.0000 C   0  0  0  0  0  0  0  0  0  0  0  0
    0.1105    0.4125    0.0000 C   0  0  0  0  0  0  0  0  0  0  0  0
    0.8250    0.0000    0.0000 C   0  0  0  0  0  0  0  0  0  0  0  0
    0.8250   -0.8250    0.0000 N   0  0  0  0  0  0  0  0  0  0  0  0
    1.5395   -1.2375    0.0000 C   0  0  0  0  0  0  0  0  0  0  0  0
    1.5395   -2.0625    0.0000 O   0  0  0  0  0  0  0  0  0  0  0  0
    2.2539   -0.8250    0.0000 C   0  0  0  0  0  0  0  0  0  0  0  0
    2.2539    0.0000    0.0000 C   0  0  0  0  0  0  0  0  0  0  0  0
    2.9684    0.4125    0.0000 C   0  0  0  0  0  0  0  0  0  0  0  0
    3.6829    0.0000    0.0000 C   0  0  0  0  0  0  0  0  0  0  0  0
    3.6829   -0.8250    0.0000 C   0  0  0  0  0  0  0  0  0  0  0  0
    4.4675   -1.0799    0.0000 C   0  0  0  0  0  0  0  0  0  0  0  0
    4.9524   -0.4125    0.0000 C   0  0  0  0  0  0  0  0  0  0  0  0
    4.4675    0.2549    0.0000 N   0  0  0  0  0  0  0  0  0  0  0  0
    4.7224   -1.8646    0.0000 Cl  0  0  0  0  0  0  0  0  0  0  0  0
    2.9684   -1.2375    0.0000 C   0  0  0  0  0  0  0  0  0  0  0  0
  1  2  1  0  0  0  0
  2  3  1  0  0  0  0
  2  4  1  0  0  0  0
  2  5  1  0  0  0  0
  5  6  4  0  0  0  0
  5  7  4  0  0  0  0
  6 13  4  0  0  0  0
  7 12  4  0  0  0  0
  8  9  1  0  0  0  0
  8 11  1  0  0  0  0
  8 16  1  0  0  0  0
  8 17  1  0  0  0  0
  9 10  1  0  0  0  0
 10 19  1  0  0  0  0
 11 12  1  0  0  0  0
 12 13  4  0  0  0  0
 13 14  1  0  0  0  0
 14 15  2  0  0  0  0
 14 16  1  0  0  0  0
 17 18  1  0  0  0  0
 18 19  1  0  0  0  0
 19 20  1  0  0  0  0
 20 21  2  0  0  0  0
 20 22  1  0  0  0  0
 22 23  4  0  0  0  0
 22 31  4  0  0  0  0
 23 24  4  0  0  0  0
 24 25  4  0  0  0  0
 25 29  4  0  0  0  0
 25 26  4  0  0  0  0
 26 27  4  0  0  0  0
 26 31  4  0  0  0  0
 27 28  4  0  0  0  0
 27 30  1  0  0  0  0
 28 29  4  0  0  0  0
M  STY  1   1 DAT
M  SAL   1  1  29
M  SDT   1 MRV_IMPLICIT_H                                        
M  SDD   1     0.0000    0.0000    DR    ALL  0       0  
M  SED   1 IMPL_H1
M  END
> <From>
www.bindingDB.org

> <BindingDB Reactant_set_id>
1397263

> <Ligand InChI>
InChI=1S/C24H26ClN3O2S/c1-23(2,3)22-27-20-18(29)11-24(12-19(20)31-22)6-8-28(9-7-24)21(30)14-4-5-17-15(10-14)16(25)13-26-17/h4-5,10,13,26H,6-9,11-12H2,1-3H3

> <Ligand InChI Key>
RLAHIHJJTHLNSJ-UHFFFAOYSA-N

> <BindingDB MonomerID>
663881

> <BindingDB Ligand Name>
US20240109915, Example 65

> <Target Name>
Activating signal cointegrator 1 complex subunit 1

> <Target Source Organism According to Curator or DataSource>


> <Ki (nM)>


> <IC50 (nM)>
 13.0

> <Kd (nM)>


> <EC50 (nM)>


> <kon (M-1-s-1)>


> <koff (s-1)>


> <pH>


> <Temp C>


> <Curation/DataSource>
US Patent

> <Article DOI>


> <BindingDB Entry DOI>
10.7270/Q2348QQ2

> <PMID>


> <PubChem AID>


> <Patent Number>
US20240109915

> <Authors>
Bagley, SW; Bootsma, AN; Choi, C; Dow, RL; Edmonds, DJ; Garcia-Irizarry, CN; Gerstenberger, BS; Ingle, G; O''Brien, JG; Parikh, MD; Rescourio, GC; Schmitt, DC

> <Institution>
Pfizer

> <Link to Ligand in BindingDB>
http://www.bindingdb.org/bind/chemsearch/marvin/MolStructure.jsp?monomerid=663881

> <Link to Ligand-Target Pair in BindingDB>
http://www.bindingdb.org/jsp/dbsearch/PrimarySearch_ki.jsp?energyterm=kJ/mole&tag=pol&polymerid=735&target=Activating+signal+cointegrator+1+complex+subunit+1&column=ki&startPg=0&Increment=50&submit=Search

> <Link to Ligand-Target Pair in BindingDB>
http://www.bindingdb.org/jsp/dbsearch/PrimarySearch_ki.jsp?energyterm=kJ/mole&tag=r21&monomerid=663881&enzyme=Activating+signal+cointegrator+1+complex+subunit+1&column=ki&startPg=0&Increment=50&submit=Search

> <Ligand HET ID in PDB>


> <PDB ID(s) for Ligand-Target Complex>


> <PubChem CID>


> <PubChem SID>


> <ChEBI ID of Ligand>


> <ChEMBL ID of Ligand>


> <DrugBank ID of Ligand>


> <IUPHAR_GRAC ID of Ligand>


> <KEGG ID of Ligand>


> <ZINC ID of Ligand>


> <Number of Protein Chains in Target (bigger than 1 implies a multichain complex)>
1

> <BindingDB Target Chain Sequence>
MEVLRPQLIRIDGRNYRKNPVQEQTYQHEEDEEDFYQGSMECADEPCDAYEVEQTPQGFRSTLRAPSLLYNLIHLNTSNDCGFQKITLDCQNIYTWKSRHIVGKRGDTRKKIEMETKTSISIPKPGQDGEIVITGQHRNGVISARTRIDVLLDTFRRKQPFTHFLAFFLNEVEVQEGFLRFQEEVLAKCSMDHGVDSSIFQNPKKLHLTIGMLVLLSEEEIQQTCEMLQQCKEEFINDISGGKPLEVEMAGIEYMNDDPGMVDVLYAKVHMKDGSNRLQELVDRVLERFQASGLIVKEWNSVKLHATVMNTLFRKDPNAEGRYNLYTAEGKYIFKERESFDGRNILKSFALLPRLEYNDAISAHCNLCLPGSSDSPASASQVAGITGVSDAYSQSLPGKS

> <PDB ID(s) of Target Chain>


> <UniProt (SwissProt) Recommended Name of Target Chain>
Activating signal cointegrator 1 complex subunit 1

> <UniProt (SwissProt) Entry Name of Target Chain>
ASCC1_HUMAN

> <UniProt (SwissProt) Primary ID of Target Chain>
Q8N9N2

> <UniProt (SwissProt) Secondary ID(s) of Target Chain>
Q5SW06 Q5SW07 Q96EI8 Q9Y307

> <UniProt (SwissProt) Alternative ID(s) of Target Chain>


> <UniProt (TrEMBL) Submitted Name of Target Chain>


> <UniProt (TrEMBL) Entry Name of Target Chain>


> <UniProt (TrEMBL) Primary ID of Target Chain>


> <UniProt (TrEMBL) Secondary ID(s) of Target Chain>


> <UniProt (TrEMBL) Alternative ID(s) of Target Chain>


$$$$
00244001.cdx
  Mrv0541 06272400352D          

 34 39  0  0  0  0            999 V2000
   -2.8823    0.8250    0.0000 C   0  0  0  0  0  0  0  0  0  0  0  0
   -2.8823    0.0000    0.0000 C   0  0  0  0  0  0  0  0  0  0  0  0
   -2.1678   -0.4125    0.0000 C   0  0  0  0  0  0  0  0  0  0  0  0
   -1.4534    0.0000    0.0000 C   0  0  0  0  0  0  0  0  0  0  0  0
   -1.4534    0.8250    0.0000 C   0  0  0  0  0  0  0  0  0  0  0  0
   -2.1678    1.2375    0.0000 C   0  0  0  0  0  0  0  0  0  0  0  0
   -1.4534   -0.8250    0.0000 C   0  0  0  0  0  0  0  0  0  0  0  0
   -0.7389   -1.2375    0.0000 C   0  0  0  0  0  0  0  0  0  0  0  0
   -0.0244   -0.8250    0.0000 N   0  0  0  0  0  0  0  0  0  0  0  0
   -0.0244    0.0000    0.0000 C   0  0  0  0  0  0  0  0  0  0  0  0
   -0.7389    0.4125    0.0000 C   0  0  0  0  0  0  0  0  0  0  0  0
    0.6900   -1.2375    0.0000 C   0  0  0  0  0  0  0  0  0  0  0  0
    1.4045   -0.8250    0.0000 C   0  0  0  0  0  0  0  0  0  0  0  0
    0.6900   -2.0625    0.0000 O   0  0  0  0  0  0  0  0  0  0  0  0
    2.1190   -1.2375    0.0000 C   0  0  0  0  0  0  0  0  0  0  0  0
    2.8334   -0.8250    0.0000 C   0  0  0  0  0  0  0  0  0  0  0  0
    2.8334    0.0000    0.0000 C   0  0  0  0  0  0  0  0  0  0  0  0
    2.1190    0.4125    0.0000 C   0  0  0  0  0  0  0  0  0  0  0  0
    1.4045    0.0000    0.0000 C   0  0  0  0  0  0  0  0  0  0  0  0
    2.1190    1.2375    0.0000 C   0  0  0  0  0  0  0  0  0  0  0  0
   -2.1678    2.0625    0.0000 O   0  0  0  0  0  0  0  0  0  0  0  0
   -3.6669    1.0799    0.0000 N   0  0  0  0  0  0  0  0  0  0  0  0
   -4.1519    0.4125    0.0000 C   0  0  0  0  0  0  0  0  0  0  0  0
   -3.6669   -0.2549    0.0000 S   0  0  0  0  0  0  0  0  0  0  0  0
   -4.9769    0.4125    0.0000 C   0  0  0  0  0  0  0  0  0  0  0  0
    3.5479   -1.2375    0.0000 N   0  0  0  0  0  0  0  0  0  0  0  0
    4.2624   -0.8250    0.0000 C   0  0  0  0  0  0  0  0  0  0  0  0
    4.2624    0.0000    0.0000 C   0  0  0  0  0  0  0  0  0  0  0  0
    3.5479    0.4125    0.0000 C   0  0  0  0  0  0  0  0  0  0  0  0
    4.9769   -1.2375    0.0000 N   0  0  0  0  0  0  0  0  0  0  0  0
    5.6913   -0.8250    0.0000 C   0  0  0  0  0  0  0  0  0  0  0  0
   -5.3894   -0.3020    0.0000 C   0  0  0  0  0  0  0  0  0  0  0  0
   -4.9769    1.2375    0.0000 C   0  0  0  0  0  0  0  0  0  0  0  0
   -5.6913    0.8250    0.0000 C   0  0  0  0  0  0  0  0  0  0  0  0
  1  2  4  0  0  0  0
  2  3  1  0  0  0  0
  3  4  1  0  0  0  0
  4  5  1  0  0  0  0
  5  6  1  0  0  0  0
  6  1  1  0  0  0  0
  4  7  1  0  0  0  0
  7  8  1  0  0  0  0
  8  9  1  0  0  0  0
  9 10  1  0  0  0  0
 10 11  1  0  0  0  0
 11  4  1  0  0  0  0
  9 12  1  0  0  0  0
 12 13  1  0  0  0  0
 12 14  2  0  0  0  0
 13 15  4  0  0  0  0
 15 16  4  0  0  0  0
 16 17  4  0  0  0  0
 17 18  4  0  0  0  0
 18 19  4  0  0  0  0
 19 13  4  0  0  0  0
 18 20  1  0  0  0  0
  6 21  2  0  0  0  0
  1 22  4  0  0  0  0
 22 23  4  0  0  0  0
 23 24  4  0  0  0  0
 24  2  4  0  0  0  0
 23 25  1  0  0  0  0
 16 26  4  0  0  0  0
 26 27  4  0  0  0  0
 27 28  4  0  0  0  0
 28 29  4  0  0  0  0
 29 17  4  0  0  0  0
 27 30  1  0  0  0  0
 30 31  1  0  0  0  0
 25 32  1  0  0  0  0
 25 33  1  0  0  0  0
 33 34  1  0  0  0  0
 34 25  1  0  0  0  0
M  END
> <From>
www.bindingDB.org

> <BindingDB Reactant_set_id>
1397210

> <Ligand InChI>
InChI=1S/C27H30N4O2S/c1-16-12-17(13-19-18(16)4-5-22(28-3)29-19)24(33)31-10-8-27(9-11-31)14-20(32)23-21(15-27)34-25(30-23)26(2)6-7-26/h4-5,12-13H,6-11,14-15H2,1-3H3,(H,28,29)

> <Ligand InChI Key>
QVKASGDAGGWVPT-UHFFFAOYSA-N

> <BindingDB MonomerID>
663828

> <BindingDB Ligand Name>
US20240109915, Example 9

> <Target Name>
Activating signal cointegrator 1 complex subunit 1

> <Target Source Organism According to Curator or DataSource>


> <Ki (nM)>


> <IC50 (nM)>
 13.4

> <Kd (nM)>


> <EC50 (nM)>


> <kon (M-1-s-1)>


> <koff (s-1)>


> <pH>


> <Temp C>


> <Curation/DataSource>
US Patent

> <Article DOI>


> <BindingDB Entry DOI>
10.7270/Q2348QQ2

> <PMID>


> <PubChem AID>


> <Patent Number>
US20240109915

> <Authors>
Bagley, SW; Bootsma, AN; Choi, C; Dow, RL; Edmonds, DJ; Garcia-Irizarry, CN; Gerstenberger, BS; Ingle, G; O''Brien, JG; Parikh, MD; Rescourio, GC; Schmitt, DC

> <Institution>
Pfizer

> <Link to Ligand in BindingDB>
http://www.bindingdb.org/bind/chemsearch/marvin/MolStructure.jsp?monomerid=663828

> <Link to Ligand-Target Pair in BindingDB>
http://www.bindingdb.org/jsp/dbsearch/PrimarySearch_ki.jsp?energyterm=kJ/mole&tag=pol&polymerid=735&target=Activating+signal+cointegrator+1+complex+subunit+1&column=ki&startPg=0&Increment=50&submit=Search

> <Link to Ligand-Target Pair in BindingDB>
http://www.bindingdb.org/jsp/dbsearch/PrimarySearch_ki.jsp?energyterm=kJ/mole&tag=r21&monomerid=663828&enzyme=Activating+signal+cointegrator+1+complex+subunit+1&column=ki&startPg=0&Increment=50&submit=Search

> <Ligand HET ID in PDB>


> <PDB ID(s) for Ligand-Target Complex>


> <PubChem CID>


> <PubChem SID>


> <ChEBI ID of Ligand>


> <ChEMBL ID of Ligand>


> <DrugBank ID of Ligand>


> <IUPHAR_GRAC ID of Ligand>


> <KEGG ID of Ligand>


> <ZINC ID of Ligand>


> <Number of Protein Chains in Target (bigger than 1 implies a multichain complex)>
1

> <BindingDB Target Chain Sequence>
MEVLRPQLIRIDGRNYRKNPVQEQTYQHEEDEEDFYQGSMECADEPCDAYEVEQTPQGFRSTLRAPSLLYNLIHLNTSNDCGFQKITLDCQNIYTWKSRHIVGKRGDTRKKIEMETKTSISIPKPGQDGEIVITGQHRNGVISARTRIDVLLDTFRRKQPFTHFLAFFLNEVEVQEGFLRFQEEVLAKCSMDHGVDSSIFQNPKKLHLTIGMLVLLSEEEIQQTCEMLQQCKEEFINDISGGKPLEVEMAGIEYMNDDPGMVDVLYAKVHMKDGSNRLQELVDRVLERFQASGLIVKEWNSVKLHATVMNTLFRKDPNAEGRYNLYTAEGKYIFKERESFDGRNILKSFALLPRLEYNDAISAHCNLCLPGSSDSPASASQVAGITGVSDAYSQSLPGKS

> <PDB ID(s) of Target Chain>


> <UniProt (SwissProt) Recommended Name of Target Chain>
Activating signal cointegrator 1 complex subunit 1

> <UniProt (SwissProt) Entry Name of Target Chain>
ASCC1_HUMAN

> <UniProt (SwissProt) Primary ID of Target Chain>
Q8N9N2

> <UniProt (SwissProt) Secondary ID(s) of Target Chain>
Q5SW06 Q5SW07 Q96EI8 Q9Y307

> <UniProt (SwissProt) Alternative ID(s) of Target Chain>


> <UniProt (TrEMBL) Submitted Name of Target Chain>


> <UniProt (TrEMBL) Entry Name of Target Chain>


> <UniProt (TrEMBL) Primary ID of Target Chain>


> <UniProt (TrEMBL) Secondary ID(s) of Target Chain>


> <UniProt (TrEMBL) Alternative ID(s) of Target Chain>


$$$$
00306001.cdx
  Mrv0541 06272400352D          

 35 39  0  0  0  0            999 V2000
   -5.0321    0.0000    0.0000 C   0  0  0  0  0  0  0  0  0  0  0  0
   -4.2071    0.0000    0.0000 C   0  0  0  0  0  0  0  0  0  0  0  0
   -4.6196   -0.7145    0.0000 C   0  0  0  0  0  0  0  0  0  0  0  0
   -4.6196    0.7145    0.0000 C   0  0  0  0  0  0  0  0  0  0  0  0
   -3.3821    0.0000    0.0000 C   0  0  0  0  0  0  0  0  0  0  0  0
   -2.8972    0.6674    0.0000 N   0  0  0  0  0  0  0  0  0  0  0  0
   -2.8972   -0.6674    0.0000 S   0  0  0  0  0  0  0  0  0  0  0  0
   -1.3981   -0.8250    0.0000 C   0  0  0  0  0  0  0  0  0  0  0  0
   -0.6836   -0.4125    0.0000 C   0  0  0  0  0  0  0  0  0  0  0  0
   -0.6836   -1.2375    0.0000 C   0  0  0  0  0  0  0  0  0  0  0  0
   -2.1126   -0.4125    0.0000 C   0  0  0  0  0  0  0  0  0  0  0  0
   -2.1126    0.4125    0.0000 C   0  0  0  0  0  0  0  0  0  0  0  0
   -1.3981    0.8250    0.0000 C   0  0  0  0  0  0  0  0  0  0  0  0
   -1.3981    1.6500    0.0000 O   0  0  0  0  0  0  0  0  0  0  0  0
   -0.6836    0.4125    0.0000 C   0  0  0  0  0  0  0  0  0  0  0  0
    0.0308    0.0000    0.0000 C   0  0  0  0  0  0  0  0  0  0  0  0
    0.7453   -0.4125    0.0000 C   0  0  0  0  0  0  0  0  0  0  0  0
    0.7453   -1.2375    0.0000 N   0  0  0  0  0  0  0  0  0  0  0  0
    0.0308   -1.6500    0.0000 C   0  0  0  0  0  0  0  0  0  0  0  0
    3.6032    1.2375    0.0000 C   0  0  0  0  0  0  0  0  0  0  0  0
    2.8887    0.8250    0.0000 C   0  0  0  0  0  0  0  0  0  0  0  0
    2.1742    1.2375    0.0000 C   0  0  0  0  0  0  0  0  0  0  0  0
    2.8887    0.0000    0.0000 C   0  0  0  0  0  0  0  0  0  0  0  0
    2.1742    2.0625    0.0000 C   0  0  0  0  0  0  0  0  0  0  0  0
    2.8887    2.4750    0.0000 C   0  0  0  0  0  0  0  0  0  0  0  0
    3.6032    2.0625    0.0000 C   0  0  0  0  0  0  0  0  0  0  0  0
    1.4598   -1.6500    0.0000 C   0  0  0  0  0  0  0  0  0  0  0  0
    1.4598   -2.4750    0.0000 O   0  0  0  0  0  0  0  0  0  0  0  0
    2.1742   -1.2375    0.0000 C   0  0  0  0  0  0  0  0  0  0  0  0
    2.1742   -0.4125    0.0000 C   0  0  0  0  0  0  0  0  0  0  0  0
    2.8887   -1.6500    0.0000 C   0  0  0  0  0  0  0  0  0  0  0  0
    3.6032   -1.2375    0.0000 C   0  0  0  0  0  0  0  0  0  0  0  0
    3.6032   -0.4125    0.0000 N   0  0  0  0  0  0  0  0  0  0  0  0
    4.3177   -1.6500    0.0000 N   0  0  0  0  0  0  0  0  0  0  0  0
    5.0321   -1.2375    0.0000 C   0  0  0  0  0  0  0  0  0  0  0  0
  1  2  1  0  0  0  0
  2  3  1  0  0  0  0
  2  4  1  0  0  0  0
  2  5  1  0  0  0  0
  5  6  4  0  0  0  0
  5  7  4  0  0  0  0
  6 12  4  0  0  0  0
  7 11  4  0  0  0  0
  8  9  1  0  0  0  0
  8 11  1  0  0  0  0
  9 10  1  0  0  0  0
  9 15  1  0  0  0  0
  9 16  1  0  0  0  0
 10 19  1  0  0  0  0
 11 12  4  0  0  0  0
 12 13  1  0  0  0  0
 13 14  2  0  0  0  0
 13 15  1  0  0  0  0
 16 17  1  0  0  0  0
 17 18  1  0  0  0  0
 18 19  1  0  0  0  0
 18 27  1  0  0  0  0
 20 21  4  0  0  0  0
 20 26  4  0  0  0  0
 21 22  4  0  0  0  0
 21 23  1  0  0  0  0
 22 24  4  0  0  0  0
 23 33  4  0  0  0  0
 23 30  4  0  0  0  0
 24 25  4  0  0  0  0
 25 26  4  0  0  0  0
 27 28  2  0  0  0  0
 27 29  1  0  0  0  0
 29 30  4  0  0  0  0
 29 31  4  0  0  0  0
 31 32  4  0  0  0  0
 32 33  4  0  0  0  0
 32 34  1  0  0  0  0
 34 35  1  0  0  0  0
M  END
> <From>
www.bindingDB.org

> <BindingDB Reactant_set_id>
1397268

> <Ligand InChI>
InChI=1S/C28H32N4O2S/c1-27(2,3)26-31-24-21(33)16-28(17-22(24)35-26)10-12-32(13-11-28)25(34)19-14-20(30-23(15-19)29-4)18-8-6-5-7-9-18/h5-9,14-15H,10-13,16-17H2,1-4H3,(H,29,30)

> <Ligand InChI Key>
QRVUCSYBXMHDDT-UHFFFAOYSA-N

> <BindingDB MonomerID>
663886

> <BindingDB Ligand Name>
US20240109915, Example 71

> <Target Name>
Activating signal cointegrator 1 complex subunit 1

> <Target Source Organism According to Curator or DataSource>


> <Ki (nM)>


> <IC50 (nM)>
 13.6

> <Kd (nM)>


> <EC50 (nM)>


> <kon (M-1-s-1)>


> <koff (s-1)>


> <pH>


> <Temp C>


> <Curation/DataSource>
US Patent

> <Article DOI>


> <BindingDB Entry DOI>
10.7270/Q2348QQ2

> <PMID>


> <PubChem AID>


> <Patent Number>
US20240109915

> <Authors>
Bagley, SW; Bootsma, AN; Choi, C; Dow, RL; Edmonds, DJ; Garcia-Irizarry, CN; Gerstenberger, BS; Ingle, G; O''Brien, JG; Parikh, MD; Rescourio, GC; Schmitt, DC

> <Institution>
Pfizer

> <Link to Ligand in BindingDB>
http://www.bindingdb.org/bind/chemsearch/marvin/MolStructure.jsp?monomerid=663886

> <Link to Ligand-Target Pair in BindingDB>
http://www.bindingdb.org/jsp/dbsearch/PrimarySearch_ki.jsp?energyterm=kJ/mole&tag=pol&polymerid=735&target=Activating+signal+cointegrator+1+complex+subunit+1&column=ki&startPg=0&Increment=50&submit=Search

> <Link to Ligand-Target Pair in BindingDB>
http://www.bindingdb.org/jsp/dbsearch/PrimarySearch_ki.jsp?energyterm=kJ/mole&tag=r21&monomerid=663886&enzyme=Activating+signal+cointegrator+1+complex+subunit+1&column=ki&startPg=0&Increment=50&submit=Search

> <Ligand HET ID in PDB>


> <PDB ID(s) for Ligand-Target Complex>


> <PubChem CID>


> <PubChem SID>


> <ChEBI ID of Ligand>


> <ChEMBL ID of Ligand>


> <DrugBank ID of Ligand>


> <IUPHAR_GRAC ID of Ligand>


> <KEGG ID of Ligand>


> <ZINC ID of Ligand>


> <Number of Protein Chains in Target (bigger than 1 implies a multichain complex)>
1

> <BindingDB Target Chain Sequence>
MEVLRPQLIRIDGRNYRKNPVQEQTYQHEEDEEDFYQGSMECADEPCDAYEVEQTPQGFRSTLRAPSLLYNLIHLNTSNDCGFQKITLDCQNIYTWKSRHIVGKRGDTRKKIEMETKTSISIPKPGQDGEIVITGQHRNGVISARTRIDVLLDTFRRKQPFTHFLAFFLNEVEVQEGFLRFQEEVLAKCSMDHGVDSSIFQNPKKLHLTIGMLVLLSEEEIQQTCEMLQQCKEEFINDISGGKPLEVEMAGIEYMNDDPGMVDVLYAKVHMKDGSNRLQELVDRVLERFQASGLIVKEWNSVKLHATVMNTLFRKDPNAEGRYNLYTAEGKYIFKERESFDGRNILKSFALLPRLEYNDAISAHCNLCLPGSSDSPASASQVAGITGVSDAYSQSLPGKS

> <PDB ID(s) of Target Chain>


> <UniProt (SwissProt) Recommended Name of Target Chain>
Activating signal cointegrator 1 complex subunit 1

> <UniProt (SwissProt) Entry Name of Target Chain>
ASCC1_HUMAN

> <UniProt (SwissProt) Primary ID of Target Chain>
Q8N9N2

> <UniProt (SwissProt) Secondary ID(s) of Target Chain>
Q5SW06 Q5SW07 Q96EI8 Q9Y307

> <UniProt (SwissProt) Alternative ID(s) of Target Chain>


> <UniProt (TrEMBL) Submitted Name of Target Chain>


> <UniProt (TrEMBL) Entry Name of Target Chain>


> <UniProt (TrEMBL) Primary ID of Target Chain>


> <UniProt (TrEMBL) Secondary ID(s) of Target Chain>


> <UniProt (TrEMBL) Alternative ID(s) of Target Chain>


$$$$
00326001.cdx
  Mrv0541 06272400352D          

 32 36  0  0  0  0            999 V2000
   -5.0321    0.4125    0.0000 C   0  0  0  0  0  0  0  0  0  0  0  0
   -4.2071    0.4125    0.0000 C   0  0  0  0  0  0  0  0  0  0  0  0
   -4.6196    1.1270    0.0000 C   0  0  0  0  0  0  0  0  0  0  0  0
   -4.6196   -0.3020    0.0000 C   0  0  0  0  0  0  0  0  0  0  0  0
   -3.3821    0.4125    0.0000 C   0  0  0  0  0  0  0  0  0  0  0  0
   -2.8972    1.0799    0.0000 N   0  0  0  0  0  0  0  0  0  0  0  0
   -2.8972   -0.2549    0.0000 S   0  0  0  0  0  0  0  0  0  0  0  0
   -0.6836    0.0000    0.0000 C   0  0  0  0  0  0  0  0  0  0  0  0
   -0.6836   -0.8250    0.0000 C   0  0  0  0  0  0  0  0  0  0  0  0
    0.0308   -1.2375    0.0000 C   0  0  0  0  0  0  0  0  0  0  0  0
   -1.3981   -0.4125    0.0000 C   0  0  0  0  0  0  0  0  0  0  0  0
   -2.1126    0.0000    0.0000 C   0  0  0  0  0  0  0  0  0  0  0  0
   -2.1126    0.8250    0.0000 C   0  0  0  0  0  0  0  0  0  0  0  0
   -1.3981    1.2375    0.0000 C   0  0  0  0  0  0  0  0  0  0  0  0
   -1.3981    2.0625    0.0000 O   0  0  0  0  0  0  0  0  0  0  0  0
   -0.6836    0.8250    0.0000 C   0  0  0  0  0  0  0  0  0  0  0  0
    0.0308    0.4125    0.0000 C   0  0  0  0  0  0  0  0  0  0  0  0
    0.7453    0.0000    0.0000 C   0  0  0  0  0  0  0  0  0  0  0  0
    0.7453   -0.8250    0.0000 N   0  0  0  0  0  0  0  0  0  0  0  0
    2.8887   -1.2375    0.0000 C   0  0  0  0  0  0  0  0  0  0  0  0
    3.6032   -0.8250    0.0000 C   0  0  0  0  0  0  0  0  0  0  0  0
    4.3177   -1.2375    0.0000 C   0  0  0  0  0  0  0  0  0  0  0  0
    2.1742   -0.8250    0.0000 C   0  0  0  0  0  0  0  0  0  0  0  0
    1.4598   -1.2375    0.0000 C   0  0  0  0  0  0  0  0  0  0  0  0
    1.4598   -2.0625    0.0000 O   0  0  0  0  0  0  0  0  0  0  0  0
    2.1742    0.0000    0.0000 C   0  0  0  0  0  0  0  0  0  0  0  0
    2.8887    0.4125    0.0000 C   0  0  0  0  0  0  0  0  0  0  0  0
    3.6032    0.0000    0.0000 C   0  0  0  0  0  0  0  0  0  0  0  0
    4.3177    0.4125    0.0000 C   0  0  0  0  0  0  0  0  0  0  0  0
    5.0321    0.0000    0.0000 C   0  0  0  0  0  0  0  0  0  0  0  0
    5.0321   -0.8250    0.0000 C   0  0  0  0  0  0  0  0  0  0  0  0
    4.3177   -2.0625    0.0000 C   0  0  0  0  0  0  0  0  0  0  0  0
  1  2  1  0  0  0  0
  2  3  1  0  0  0  0
  2  4  1  0  0  0  0
  2  5  1  0  0  0  0
  5  6  4  0  0  0  0
  5  7  4  0  0  0  0
  6 13  4  0  0  0  0
  7 12  4  0  0  0  0
  8  9  1  0  0  0  0
  8 11  1  0  0  0  0
  8 16  1  0  0  0  0
  8 17  1  0  0  0  0
  9 10  1  0  0  0  0
 10 19  1  0  0  0  0
 11 12  1  0  0  0  0
 12 13  4  0  0  0  0
 13 14  1  0  0  0  0
 14 15  2  0  0  0  0
 14 16  1  0  0  0  0
 17 18  1  0  0  0  0
 18 19  1  0  0  0  0
 19 24  1  0  0  0  0
 20 21  4  0  0  0  0
 20 23  4  0  0  0  0
 21 22  4  0  0  0  0
 21 28  4  0  0  0  0
 22 31  4  0  0  0  0
 22 32  1  0  0  0  0
 23 24  1  0  0  0  0
 23 26  4  0  0  0  0
 24 25  2  0  0  0  0
 26 27  4  0  0  0  0
 27 28  4  0  0  0  0
 28 29  4  0  0  0  0
 29 30  4  0  0  0  0
 30 31  4  0  0  0  0
M  END
> <From>
www.bindingDB.org

> <BindingDB Reactant_set_id>
1397288

> <Ligand InChI>
InChI=1S/C27H30N2O2S/c1-17-6-5-7-18-8-9-19(14-20(17)18)24(31)29-12-10-27(11-13-29)15-21(30)23-22(16-27)32-25(28-23)26(2,3)4/h5-9,14H,10-13,15-16H2,1-4H3

> <Ligand InChI Key>
LLJOUUUJUHNSBX-UHFFFAOYSA-N

> <BindingDB MonomerID>
663906

> <BindingDB Ligand Name>
US20240109915, Example 91

> <Target Name>
Activating signal cointegrator 1 complex subunit 1

> <Target Source Organism According to Curator or DataSource>


> <Ki (nM)>


> <IC50 (nM)>
 14.0

> <Kd (nM)>


> <EC50 (nM)>


> <kon (M-1-s-1)>


> <koff (s-1)>


> <pH>


> <Temp C>


> <Curation/DataSource>
US Patent

> <Article DOI>


> <BindingDB Entry DOI>
10.7270/Q2348QQ2

> <PMID>


> <PubChem AID>


> <Patent Number>
US20240109915

> <Authors>
Bagley, SW; Bootsma, AN; Choi, C; Dow, RL; Edmonds, DJ; Garcia-Irizarry, CN; Gerstenberger, BS; Ingle, G; O''Brien, JG; Parikh, MD; Rescourio, GC; Schmitt, DC

> <Institution>
Pfizer

> <Link to Ligand in BindingDB>
http://www.bindingdb.org/bind/chemsearch/marvin/MolStructure.jsp?monomerid=663906

> <Link to Ligand-Target Pair in BindingDB>
http://www.bindingdb.org/jsp/dbsearch/PrimarySearch_ki.jsp?energyterm=kJ/mole&tag=pol&polymerid=735&target=Activating+signal+cointegrator+1+complex+subunit+1&column=ki&startPg=0&Increment=50&submit=Search

> <Link to Ligand-Target Pair in BindingDB>
http://www.bindingdb.org/jsp/dbsearch/PrimarySearch_ki.jsp?energyterm=kJ/mole&tag=r21&monomerid=663906&enzyme=Activating+signal+cointegrator+1+complex+subunit+1&column=ki&startPg=0&Increment=50&submit=Search

> <Ligand HET ID in PDB>


> <PDB ID(s) for Ligand-Target Complex>


> <PubChem CID>


> <PubChem SID>


> <ChEBI ID of Ligand>


> <ChEMBL ID of Ligand>


> <DrugBank ID of Ligand>


> <IUPHAR_GRAC ID of Ligand>


> <KEGG ID of Ligand>


> <ZINC ID of Ligand>


> <Number of Protein Chains in Target (bigger than 1 implies a multichain complex)>
1

> <BindingDB Target Chain Sequence>
MEVLRPQLIRIDGRNYRKNPVQEQTYQHEEDEEDFYQGSMECADEPCDAYEVEQTPQGFRSTLRAPSLLYNLIHLNTSNDCGFQKITLDCQNIYTWKSRHIVGKRGDTRKKIEMETKTSISIPKPGQDGEIVITGQHRNGVISARTRIDVLLDTFRRKQPFTHFLAFFLNEVEVQEGFLRFQEEVLAKCSMDHGVDSSIFQNPKKLHLTIGMLVLLSEEEIQQTCEMLQQCKEEFINDISGGKPLEVEMAGIEYMNDDPGMVDVLYAKVHMKDGSNRLQELVDRVLERFQASGLIVKEWNSVKLHATVMNTLFRKDPNAEGRYNLYTAEGKYIFKERESFDGRNILKSFALLPRLEYNDAISAHCNLCLPGSSDSPASASQVAGITGVSDAYSQSLPGKS

> <PDB ID(s) of Target Chain>


> <UniProt (SwissProt) Recommended Name of Target Chain>
Activating signal cointegrator 1 complex subunit 1

> <UniProt (SwissProt) Entry Name of Target Chain>
ASCC1_HUMAN

> <UniProt (SwissProt) Primary ID of Target Chain>
Q8N9N2

> <UniProt (SwissProt) Secondary ID(s) of Target Chain>
Q5SW06 Q5SW07 Q96EI8 Q9Y307

> <UniProt (SwissProt) Alternative ID(s) of Target Chain>


> <UniProt (TrEMBL) Submitted Name of Target Chain>


> <UniProt (TrEMBL) Entry Name of Target Chain>


> <UniProt (TrEMBL) Primary ID of Target Chain>


> <UniProt (TrEMBL) Secondary ID(s) of Target Chain>


> <UniProt (TrEMBL) Alternative ID(s) of Target Chain>


$$$$
00321001.cdx
  Mrv0541 06272400352D          

 35 39  0  0  0  0            999 V2000
   -5.0321    0.6187    0.0000 C   0  0  0  0  0  0  0  0  0  0  0  0
   -4.2071    0.6187    0.0000 C   0  0  0  0  0  0  0  0  0  0  0  0
   -4.6196    1.3332    0.0000 C   0  0  0  0  0  0  0  0  0  0  0  0
   -4.6196   -0.0957    0.0000 C   0  0  0  0  0  0  0  0  0  0  0  0
   -3.3821    0.6187    0.0000 C   0  0  0  0  0  0  0  0  0  0  0  0
   -2.8972    1.2862    0.0000 N   0  0  0  0  0  0  0  0  0  0  0  0
   -2.8972   -0.0487    0.0000 S   0  0  0  0  0  0  0  0  0  0  0  0
   -1.3981   -0.2062    0.0000 C   0  0  0  0  0  0  0  0  0  0  0  0
   -0.6836    0.2062    0.0000 C   0  0  0  0  0  0  0  0  0  0  0  0
   -0.6836   -0.6187    0.0000 C   0  0  0  0  0  0  0  0  0  0  0  0
   -2.1126    0.2062    0.0000 C   0  0  0  0  0  0  0  0  0  0  0  0
   -2.1126    1.0313    0.0000 C   0  0  0  0  0  0  0  0  0  0  0  0
   -1.3981    1.4437    0.0000 C   0  0  0  0  0  0  0  0  0  0  0  0
   -1.3981    2.2687    0.0000 O   0  0  0  0  0  0  0  0  0  0  0  0
   -0.6836    1.0313    0.0000 C   0  0  0  0  0  0  0  0  0  0  0  0
    0.0308    0.6187    0.0000 C   0  0  0  0  0  0  0  0  0  0  0  0
    0.7453    0.2062    0.0000 C   0  0  0  0  0  0  0  0  0  0  0  0
    0.7453   -0.6187    0.0000 N   0  0  0  0  0  0  0  0  0  0  0  0
    0.0308   -1.0313    0.0000 C   0  0  0  0  0  0  0  0  0  0  0  0
    4.3177   -1.8563    0.0000 O   0  0  0  0  0  0  0  0  0  0  0  0
    5.0321   -2.2687    0.0000 C   0  0  0  0  0  0  0  0  0  0  0  0
    3.6032   -0.6187    0.0000 C   0  0  0  0  0  0  0  0  0  0  0  0
    4.3177   -1.0313    0.0000 C   0  0  0  0  0  0  0  0  0  0  0  0
    3.6032    0.2062    0.0000 C   0  0  0  0  0  0  0  0  0  0  0  0
    2.8887    0.6187    0.0000 C   0  0  0  0  0  0  0  0  0  0  0  0
    2.1742    0.2062    0.0000 C   0  0  0  0  0  0  0  0  0  0  0  0
    2.1742   -0.6187    0.0000 C   0  0  0  0  0  0  0  0  0  0  0  0
    2.8887   -1.0313    0.0000 N   0  0  0  0  0  0  0  0  0  0  0  0
    1.4598   -1.0313    0.0000 C   0  0  0  0  0  0  0  0  0  0  0  0
    1.4598   -1.8563    0.0000 O   0  0  0  0  0  0  0  0  0  0  0  0
    2.8887    1.4437    0.0000 O   0  0  0  0  0  0  0  0  0  0  0  0
    4.3177    0.6187    0.0000 C   0  0  0  0  0  0  0  0  0  0  0  0
    5.0321    0.2062    0.0000 C   0  0  0  0  0  0  0  0  0  0  0  0
    5.0321   -0.6187    0.0000 C   0  0  0  0  0  0  0  0  0  0  0  0
    2.1742    1.8563    0.0000 C   0  0  0  0  0  0  0  0  0  0  0  0
  1  2  1  0  0  0  0
  2  3  1  0  0  0  0
  2  4  1  0  0  0  0
  2  5  1  0  0  0  0
  5  6  4  0  0  0  0
  5  7  4  0  0  0  0
  6 12  4  0  0  0  0
  7 11  4  0  0  0  0
  8  9  1  0  0  0  0
  8 11  1  0  0  0  0
  9 10  1  0  0  0  0
  9 15  1  0  0  0  0
  9 16  1  0  0  0  0
 10 19  1  0  0  0  0
 11 12  4  0  0  0  0
 12 13  1  0  0  0  0
 13 14  2  0  0  0  0
 13 15  1  0  0  0  0
 16 17  1  0  0  0  0
 17 18  1  0  0  0  0
 18 19  1  0  0  0  0
 18 29  1  0  0  0  0
 20 21  1  0  0  0  0
 20 23  1  0  0  0  0
 22 28  4  0  0  0  0
 22 23  4  0  0  0  0
 22 24  4  0  0  0  0
 23 34  4  0  0  0  0
 24 25  4  0  0  0  0
 24 32  4  0  0  0  0
 25 26  4  0  0  0  0
 25 31  1  0  0  0  0
 26 27  4  0  0  0  0
 27 28  4  0  0  0  0
 27 29  1  0  0  0  0
 29 30  2  0  0  0  0
 31 35  1  0  0  0  0
 32 33  4  0  0  0  0
 33 34  4  0  0  0  0
M  END
> <From>
www.bindingDB.org

> <BindingDB Reactant_set_id>
1397283

> <Ligand InChI>
InChI=1S/C27H31N3O4S/c1-26(2,3)25-29-23-18(31)14-27(15-21(23)35-25)9-11-30(12-10-27)24(32)17-13-20(34-5)16-7-6-8-19(33-4)22(16)28-17/h6-8,13H,9-12,14-15H2,1-5H3

> <Ligand InChI Key>
RQUYIVJJKNYYQE-UHFFFAOYSA-N

> <BindingDB MonomerID>
663901

> <BindingDB Ligand Name>
US20240109915, Example 86

> <Target Name>
Activating signal cointegrator 1 complex subunit 1

> <Target Source Organism According to Curator or DataSource>


> <Ki (nM)>


> <IC50 (nM)>
 14.3

> <Kd (nM)>


> <EC50 (nM)>


> <kon (M-1-s-1)>


> <koff (s-1)>


> <pH>


> <Temp C>


> <Curation/DataSource>
US Patent

> <Article DOI>


> <BindingDB Entry DOI>
10.7270/Q2348QQ2

> <PMID>


> <PubChem AID>


> <Patent Number>
US20240109915

> <Authors>
Bagley, SW; Bootsma, AN; Choi, C; Dow, RL; Edmonds, DJ; Garcia-Irizarry, CN; Gerstenberger, BS; Ingle, G; O''Brien, JG; Parikh, MD; Rescourio, GC; Schmitt, DC

> <Institution>
Pfizer

> <Link to Ligand in BindingDB>
http://www.bindingdb.org/bind/chemsearch/marvin/MolStructure.jsp?monomerid=663901

> <Link to Ligand-Target Pair in BindingDB>
http://www.bindingdb.org/jsp/dbsearch/PrimarySearch_ki.jsp?energyterm=kJ/mole&tag=pol&polymerid=735&target=Activating+signal+cointegrator+1+complex+subunit+1&column=ki&startPg=0&Increment=50&submit=Search

> <Link to Ligand-Target Pair in BindingDB>
http://www.bindingdb.org/jsp/dbsearch/PrimarySearch_ki.jsp?energyterm=kJ/mole&tag=r21&monomerid=663901&enzyme=Activating+signal+cointegrator+1+complex+subunit+1&column=ki&startPg=0&Increment=50&submit=Search

> <Ligand HET ID in PDB>


> <PDB ID(s) for Ligand-Target Complex>


> <PubChem CID>


> <PubChem SID>


> <ChEBI ID of Ligand>


> <ChEMBL ID of Ligand>


> <DrugBank ID of Ligand>


> <IUPHAR_GRAC ID of Ligand>


> <KEGG ID of Ligand>


> <ZINC ID of Ligand>


> <Number of Protein Chains in Target (bigger than 1 implies a multichain complex)>
1

> <BindingDB Target Chain Sequence>
MEVLRPQLIRIDGRNYRKNPVQEQTYQHEEDEEDFYQGSMECADEPCDAYEVEQTPQGFRSTLRAPSLLYNLIHLNTSNDCGFQKITLDCQNIYTWKSRHIVGKRGDTRKKIEMETKTSISIPKPGQDGEIVITGQHRNGVISARTRIDVLLDTFRRKQPFTHFLAFFLNEVEVQEGFLRFQEEVLAKCSMDHGVDSSIFQNPKKLHLTIGMLVLLSEEEIQQTCEMLQQCKEEFINDISGGKPLEVEMAGIEYMNDDPGMVDVLYAKVHMKDGSNRLQELVDRVLERFQASGLIVKEWNSVKLHATVMNTLFRKDPNAEGRYNLYTAEGKYIFKERESFDGRNILKSFALLPRLEYNDAISAHCNLCLPGSSDSPASASQVAGITGVSDAYSQSLPGKS

> <PDB ID(s) of Target Chain>


> <UniProt (SwissProt) Recommended Name of Target Chain>
Activating signal cointegrator 1 complex subunit 1

> <UniProt (SwissProt) Entry Name of Target Chain>
ASCC1_HUMAN

> <UniProt (SwissProt) Primary ID of Target Chain>
Q8N9N2

> <UniProt (SwissProt) Secondary ID(s) of Target Chain>
Q5SW06 Q5SW07 Q96EI8 Q9Y307

> <UniProt (SwissProt) Alternative ID(s) of Target Chain>


> <UniProt (TrEMBL) Submitted Name of Target Chain>


> <UniProt (TrEMBL) Entry Name of Target Chain>


> <UniProt (TrEMBL) Primary ID of Target Chain>


> <UniProt (TrEMBL) Secondary ID(s) of Target Chain>


> <UniProt (TrEMBL) Alternative ID(s) of Target Chain>


$$$$
00323001.cdx
  Mrv0541 06272400352D          

 31 35  0  0  0  0            999 V2000
   -4.6749    0.4125    0.0000 C   0  0  0  0  0  0  0  0  0  0  0  0
   -3.8499    0.4125    0.0000 C   0  0  0  0  0  0  0  0  0  0  0  0
   -4.2624    1.1270    0.0000 C   0  0  0  0  0  0  0  0  0  0  0  0
   -4.2624   -0.3020    0.0000 C   0  0  0  0  0  0  0  0  0  0  0  0
   -3.0249    0.4125    0.0000 C   0  0  0  0  0  0  0  0  0  0  0  0
   -2.5400    1.0799    0.0000 N   0  0  0  0  0  0  0  0  0  0  0  0
   -2.5400   -0.2549    0.0000 S   0  0  0  0  0  0  0  0  0  0  0  0
   -1.0409   -0.4125    0.0000 C   0  0  0  0  0  0  0  0  0  0  0  0
   -0.3264    0.0000    0.0000 C   0  0  0  0  0  0  0  0  0  0  0  0
   -0.3264   -0.8250    0.0000 C   0  0  0  0  0  0  0  0  0  0  0  0
   -1.7553    0.0000    0.0000 C   0  0  0  0  0  0  0  0  0  0  0  0
   -1.7553    0.8250    0.0000 C   0  0  0  0  0  0  0  0  0  0  0  0
   -1.0409    1.2375    0.0000 C   0  0  0  0  0  0  0  0  0  0  0  0
   -1.0409    2.0625    0.0000 O   0  0  0  0  0  0  0  0  0  0  0  0
   -0.3264    0.8250    0.0000 C   0  0  0  0  0  0  0  0  0  0  0  0
    0.3881    0.4125    0.0000 C   0  0  0  0  0  0  0  0  0  0  0  0
    1.1025    0.0000    0.0000 C   0  0  0  0  0  0  0  0  0  0  0  0
    1.1025   -0.8250    0.0000 N   0  0  0  0  0  0  0  0  0  0  0  0
    0.3881   -1.2375    0.0000 C   0  0  0  0  0  0  0  0  0  0  0  0
    1.8170   -1.2375    0.0000 C   0  0  0  0  0  0  0  0  0  0  0  0
    1.8170   -2.0625    0.0000 O   0  0  0  0  0  0  0  0  0  0  0  0
    2.5315   -0.8250    0.0000 C   0  0  0  0  0  0  0  0  0  0  0  0
    2.5315    0.0000    0.0000 C   0  0  0  0  0  0  0  0  0  0  0  0
    1.9184    0.5520    0.0000 C   0  0  0  0  0  0  0  0  0  0  0  0
    2.2539    1.3057    0.0000 C   0  0  0  0  0  0  0  0  0  0  0  0
    3.0744    1.2195    0.0000 N   0  0  0  0  0  0  0  0  0  0  0  0
    3.2459    0.4125    0.0000 C   0  0  0  0  0  0  0  0  0  0  0  0
    3.9604    0.0000    0.0000 C   0  0  0  0  0  0  0  0  0  0  0  0
    4.6749    0.4125    0.0000 Cl  0  0  0  0  0  0  0  0  0  0  0  0
    3.9604   -0.8250    0.0000 C   0  0  0  0  0  0  0  0  0  0  0  0
    3.2459   -1.2375    0.0000 C   0  0  0  0  0  0  0  0  0  0  0  0
  1  2  1  0  0  0  0
  2  3  1  0  0  0  0
  2  4  1  0  0  0  0
  2  5  1  0  0  0  0
  5  6  4  0  0  0  0
  5  7  4  0  0  0  0
  6 12  4  0  0  0  0
  7 11  4  0  0  0  0
  8  9  1  0  0  0  0
  8 11  1  0  0  0  0
  9 10  1  0  0  0  0
  9 15  1  0  0  0  0
  9 16  1  0  0  0  0
 10 19  1  0  0  0  0
 11 12  4  0  0  0  0
 12 13  1  0  0  0  0
 13 14  2  0  0  0  0
 13 15  1  0  0  0  0
 16 17  1  0  0  0  0
 17 18  1  0  0  0  0
 18 19  1  0  0  0  0
 18 20  1  0  0  0  0
 20 21  2  0  0  0  0
 20 22  1  0  0  0  0
 22 23  4  0  0  0  0
 22 31  4  0  0  0  0
 23 24  4  0  0  0  0
 23 27  4  0  0  0  0
 24 25  4  0  0  0  0
 25 26  4  0  0  0  0
 26 27  4  0  0  0  0
 27 28  4  0  0  0  0
 28 29  1  0  0  0  0
 28 30  4  0  0  0  0
 30 31  4  0  0  0  0
M  STY  1   1 DAT
M  SAL   1  1  26
M  SDT   1 MRV_IMPLICIT_H                                        
M  SDD   1     0.0000    0.0000    DR    ALL  0       0  
M  SED   1 IMPL_H1
M  END
> <From>
www.bindingDB.org

> <BindingDB Reactant_set_id>
1397285

> <Ligand InChI>
InChI=1S/C24H26ClN3O2S/c1-23(2,3)22-27-20-17(29)12-24(13-18(20)31-22)7-10-28(11-8-24)21(30)15-4-5-16(25)19-14(15)6-9-26-19/h4-6,9,26H,7-8,10-13H2,1-3H3

> <Ligand InChI Key>
MVINSZJYMIKPMW-UHFFFAOYSA-N

> <BindingDB MonomerID>
663903

> <BindingDB Ligand Name>
US20240109915, Example 88

> <Target Name>
Activating signal cointegrator 1 complex subunit 1

> <Target Source Organism According to Curator or DataSource>


> <Ki (nM)>


> <IC50 (nM)>
 15.0

> <Kd (nM)>


> <EC50 (nM)>


> <kon (M-1-s-1)>


> <koff (s-1)>


> <pH>


> <Temp C>


> <Curation/DataSource>
US Patent

> <Article DOI>


> <BindingDB Entry DOI>
10.7270/Q2348QQ2

> <PMID>


> <PubChem AID>


> <Patent Number>
US20240109915

> <Authors>
Bagley, SW; Bootsma, AN; Choi, C; Dow, RL; Edmonds, DJ; Garcia-Irizarry, CN; Gerstenberger, BS; Ingle, G; O''Brien, JG; Parikh, MD; Rescourio, GC; Schmitt, DC

> <Institution>
Pfizer

> <Link to Ligand in BindingDB>
http://www.bindingdb.org/bind/chemsearch/marvin/MolStructure.jsp?monomerid=663903

> <Link to Ligand-Target Pair in BindingDB>
http://www.bindingdb.org/jsp/dbsearch/PrimarySearch_ki.jsp?energyterm=kJ/mole&tag=pol&polymerid=735&target=Activating+signal+cointegrator+1+complex+subunit+1&column=ki&startPg=0&Increment=50&submit=Search

> <Link to Ligand-Target Pair in BindingDB>
http://www.bindingdb.org/jsp/dbsearch/PrimarySearch_ki.jsp?energyterm=kJ/mole&tag=r21&monomerid=663903&enzyme=Activating+signal+cointegrator+1+complex+subunit+1&column=ki&startPg=0&Increment=50&submit=Search

> <Ligand HET ID in PDB>


> <PDB ID(s) for Ligand-Target Complex>


> <PubChem CID>


> <PubChem SID>


> <ChEBI ID of Ligand>


> <ChEMBL ID of Ligand>


> <DrugBank ID of Ligand>


> <IUPHAR_GRAC ID of Ligand>


> <KEGG ID of Ligand>


> <ZINC ID of Ligand>


> <Number of Protein Chains in Target (bigger than 1 implies a multichain complex)>
1

> <BindingDB Target Chain Sequence>
MEVLRPQLIRIDGRNYRKNPVQEQTYQHEEDEEDFYQGSMECADEPCDAYEVEQTPQGFRSTLRAPSLLYNLIHLNTSNDCGFQKITLDCQNIYTWKSRHIVGKRGDTRKKIEMETKTSISIPKPGQDGEIVITGQHRNGVISARTRIDVLLDTFRRKQPFTHFLAFFLNEVEVQEGFLRFQEEVLAKCSMDHGVDSSIFQNPKKLHLTIGMLVLLSEEEIQQTCEMLQQCKEEFINDISGGKPLEVEMAGIEYMNDDPGMVDVLYAKVHMKDGSNRLQELVDRVLERFQASGLIVKEWNSVKLHATVMNTLFRKDPNAEGRYNLYTAEGKYIFKERESFDGRNILKSFALLPRLEYNDAISAHCNLCLPGSSDSPASASQVAGITGVSDAYSQSLPGKS

> <PDB ID(s) of Target Chain>


> <UniProt (SwissProt) Recommended Name of Target Chain>
Activating signal cointegrator 1 complex subunit 1

> <UniProt (SwissProt) Entry Name of Target Chain>
ASCC1_HUMAN

> <UniProt (SwissProt) Primary ID of Target Chain>
Q8N9N2

> <UniProt (SwissProt) Secondary ID(s) of Target Chain>
Q5SW06 Q5SW07 Q96EI8 Q9Y307

> <UniProt (SwissProt) Alternative ID(s) of Target Chain>


> <UniProt (TrEMBL) Submitted Name of Target Chain>


> <UniProt (TrEMBL) Entry Name of Target Chain>


> <UniProt (TrEMBL) Primary ID of Target Chain>


> <UniProt (TrEMBL) Secondary ID(s) of Target Chain>


> <UniProt (TrEMBL) Alternative ID(s) of Target Chain>


$$$$
00276001.cdx
  Mrv0541 06272400352D          

 34 38  0  0  0  0            999 V2000
   -3.3821    0.6187    0.0000 C   0  0  0  0  0  0  0  0  0  0  0  0
   -2.8972    1.2862    0.0000 N   0  0  0  0  0  0  0  0  0  0  0  0
   -4.2071    0.6187    0.0000 C   0  0  0  0  0  0  0  0  0  0  0  0
   -2.8972   -0.0487    0.0000 S   0  0  0  0  0  0  0  0  0  0  0  0
   -5.0321    0.6187    0.0000 C   0  0  0  0  0  0  0  0  0  0  0  0
   -4.6196   -0.0957    0.0000 C   0  0  0  0  0  0  0  0  0  0  0  0
   -4.6196    1.3332    0.0000 C   0  0  0  0  0  0  0  0  0  0  0  0
   -2.1126    0.2062    0.0000 C   0  0  0  0  0  0  0  0  0  0  0  0
   -2.1126    1.0312    0.0000 C   0  0  0  0  0  0  0  0  0  0  0  0
   -1.3981   -0.2063    0.0000 C   0  0  0  0  0  0  0  0  0  0  0  0
   -1.3981    1.4437    0.0000 C   0  0  0  0  0  0  0  0  0  0  0  0
   -1.3981    2.2687    0.0000 O   0  0  0  0  0  0  0  0  0  0  0  0
   -0.6836    1.0312    0.0000 C   0  0  0  0  0  0  0  0  0  0  0  0
   -0.6836    0.2062    0.0000 C   0  0  0  0  0  0  0  0  0  0  0  0
    0.0308    0.6188    0.0000 C   0  0  0  0  0  0  0  0  0  0  0  0
    0.7453    0.2062    0.0000 C   0  0  0  0  0  0  0  0  0  0  0  0
    0.7453   -0.6187    0.0000 N   0  0  0  0  0  0  0  0  0  0  0  0
   -0.6836   -0.6187    0.0000 C   0  0  0  0  0  0  0  0  0  0  0  0
    0.0308   -1.0313    0.0000 C   0  0  0  0  0  0  0  0  0  0  0  0
    4.3177   -1.8563    0.0000 O   0  0  0  0  0  0  0  0  0  0  0  0
    5.0321   -2.2687    0.0000 C   0  0  0  0  0  0  0  0  0  0  0  0
    2.8887    0.6188    0.0000 C   0  0  0  0  0  0  0  0  0  0  0  0
    3.6032    0.2062    0.0000 C   0  0  0  0  0  0  0  0  0  0  0  0
    2.1742    0.2062    0.0000 C   0  0  0  0  0  0  0  0  0  0  0  0
    2.8887    1.4438    0.0000 C   0  0  0  0  0  0  0  0  0  0  0  0
    3.6032   -0.6187    0.0000 C   0  0  0  0  0  0  0  0  0  0  0  0
    5.0321    0.2062    0.0000 C   0  0  0  0  0  0  0  0  0  0  0  0
    4.3177    0.6188    0.0000 N   0  0  0  0  0  0  0  0  0  0  0  0
    4.3177   -1.0313    0.0000 C   0  0  0  0  0  0  0  0  0  0  0  0
    5.0321   -0.6187    0.0000 C   0  0  0  0  0  0  0  0  0  0  0  0
    2.8887   -1.0313    0.0000 C   0  0  0  0  0  0  0  0  0  0  0  0
    2.1742   -0.6187    0.0000 C   0  0  0  0  0  0  0  0  0  0  0  0
    1.4598   -1.0313    0.0000 C   0  0  0  0  0  0  0  0  0  0  0  0
    1.4598   -1.8563    0.0000 O   0  0  0  0  0  0  0  0  0  0  0  0
  1  2  4  0  0  0  0
  1  3  1  0  0  0  0
  1  4  4  0  0  0  0
  2  9  4  0  0  0  0
  3  5  1  0  0  0  0
  3  6  1  0  0  0  0
  3  7  1  0  0  0  0
  4  8  4  0  0  0  0
  8  9  4  0  0  0  0
  8 10  1  0  0  0  0
  9 11  1  0  0  0  0
 10 14  1  0  0  0  0
 11 12  2  0  0  0  0
 11 13  1  0  0  0  0
 13 14  1  0  0  0  0
 14 15  1  0  0  0  0
 14 18  1  0  0  0  0
 15 16  1  0  0  0  0
 16 17  1  0  0  0  0
 17 19  1  0  0  0  0
 17 33  1  0  0  0  0
 18 19  1  0  0  0  0
 20 21  1  0  0  0  0
 20 29  1  0  0  0  0
 22 23  4  0  0  0  0
 22 24  4  0  0  0  0
 22 25  1  0  0  0  0
 23 28  4  0  0  0  0
 23 26  4  0  0  0  0
 24 32  4  0  0  0  0
 26 29  4  0  0  0  0
 26 31  4  0  0  0  0
 27 28  4  0  0  0  0
 27 30  4  0  0  0  0
 29 30  4  0  0  0  0
 31 32  4  0  0  0  0
 32 33  1  0  0  0  0
 33 34  2  0  0  0  0
M  END
> <From>
www.bindingDB.org

> <BindingDB Reactant_set_id>
1397241

> <Ligand InChI>
InChI=1S/C27H31N3O3S/c1-16-12-17(13-18-20(33-5)6-9-28-22(16)18)24(32)30-10-7-27(8-11-30)14-19(31)23-21(15-27)34-25(29-23)26(2,3)4/h6,9,12-13H,7-8,10-11,14-15H2,1-5H3

> <Ligand InChI Key>
PXJAPSFUVOQONV-UHFFFAOYSA-N

> <BindingDB MonomerID>
663859

> <BindingDB Ligand Name>
US20240109915, Example 41

> <Target Name>
Activating signal cointegrator 1 complex subunit 1

> <Target Source Organism According to Curator or DataSource>


> <Ki (nM)>


> <IC50 (nM)>
 15.3

> <Kd (nM)>


> <EC50 (nM)>


> <kon (M-1-s-1)>


> <koff (s-1)>


> <pH>


> <Temp C>


> <Curation/DataSource>
US Patent

> <Article DOI>


> <BindingDB Entry DOI>
10.7270/Q2348QQ2

> <PMID>


> <PubChem AID>


> <Patent Number>
US20240109915

> <Authors>
Bagley, SW; Bootsma, AN; Choi, C; Dow, RL; Edmonds, DJ; Garcia-Irizarry, CN; Gerstenberger, BS; Ingle, G; O''Brien, JG; Parikh, MD; Rescourio, GC; Schmitt, DC

> <Institution>
Pfizer

> <Link to Ligand in BindingDB>
http://www.bindingdb.org/bind/chemsearch/marvin/MolStructure.jsp?monomerid=663859

> <Link to Ligand-Target Pair in BindingDB>
http://www.bindingdb.org/jsp/dbsearch/PrimarySearch_ki.jsp?energyterm=kJ/mole&tag=pol&polymerid=735&target=Activating+signal+cointegrator+1+complex+subunit+1&column=ki&startPg=0&Increment=50&submit=Search

> <Link to Ligand-Target Pair in BindingDB>
http://www.bindingdb.org/jsp/dbsearch/PrimarySearch_ki.jsp?energyterm=kJ/mole&tag=r21&monomerid=663859&enzyme=Activating+signal+cointegrator+1+complex+subunit+1&column=ki&startPg=0&Increment=50&submit=Search

> <Ligand HET ID in PDB>


> <PDB ID(s) for Ligand-Target Complex>


> <PubChem CID>


> <PubChem SID>


> <ChEBI ID of Ligand>


> <ChEMBL ID of Ligand>


> <DrugBank ID of Ligand>


> <IUPHAR_GRAC ID of Ligand>


> <KEGG ID of Ligand>


> <ZINC ID of Ligand>


> <Number of Protein Chains in Target (bigger than 1 implies a multichain complex)>
1

> <BindingDB Target Chain Sequence>
MEVLRPQLIRIDGRNYRKNPVQEQTYQHEEDEEDFYQGSMECADEPCDAYEVEQTPQGFRSTLRAPSLLYNLIHLNTSNDCGFQKITLDCQNIYTWKSRHIVGKRGDTRKKIEMETKTSISIPKPGQDGEIVITGQHRNGVISARTRIDVLLDTFRRKQPFTHFLAFFLNEVEVQEGFLRFQEEVLAKCSMDHGVDSSIFQNPKKLHLTIGMLVLLSEEEIQQTCEMLQQCKEEFINDISGGKPLEVEMAGIEYMNDDPGMVDVLYAKVHMKDGSNRLQELVDRVLERFQASGLIVKEWNSVKLHATVMNTLFRKDPNAEGRYNLYTAEGKYIFKERESFDGRNILKSFALLPRLEYNDAISAHCNLCLPGSSDSPASASQVAGITGVSDAYSQSLPGKS

> <PDB ID(s) of Target Chain>


> <UniProt (SwissProt) Recommended Name of Target Chain>
Activating signal cointegrator 1 complex subunit 1

> <UniProt (SwissProt) Entry Name of Target Chain>
ASCC1_HUMAN

> <UniProt (SwissProt) Primary ID of Target Chain>
Q8N9N2

> <UniProt (SwissProt) Secondary ID(s) of Target Chain>
Q5SW06 Q5SW07 Q96EI8 Q9Y307

> <UniProt (SwissProt) Alternative ID(s) of Target Chain>


> <UniProt (TrEMBL) Submitted Name of Target Chain>


> <UniProt (TrEMBL) Entry Name of Target Chain>


> <UniProt (TrEMBL) Primary ID of Target Chain>


> <UniProt (TrEMBL) Secondary ID(s) of Target Chain>


> <UniProt (TrEMBL) Alternative ID(s) of Target Chain>


$$$$
00304001.cdx
  Mrv0541 06272400352D          

 35 39  0  0  0  0            999 V2000
   -5.0321    0.0000    0.0000 C   0  0  0  0  0  0  0  0  0  0  0  0
   -4.2071    0.0000    0.0000 C   0  0  0  0  0  0  0  0  0  0  0  0
   -4.6196   -0.7145    0.0000 C   0  0  0  0  0  0  0  0  0  0  0  0
   -4.6196    0.7145    0.0000 C   0  0  0  0  0  0  0  0  0  0  0  0
   -3.3821    0.0000    0.0000 C   0  0  0  0  0  0  0  0  0  0  0  0
   -2.8972    0.6674    0.0000 N   0  0  0  0  0  0  0  0  0  0  0  0
   -2.8972   -0.6674    0.0000 S   0  0  0  0  0  0  0  0  0  0  0  0
   -1.3981   -0.8250    0.0000 C   0  0  0  0  0  0  0  0  0  0  0  0
   -0.6836   -0.4125    0.0000 C   0  0  0  0  0  0  0  0  0  0  0  0
   -0.6836   -1.2375    0.0000 C   0  0  0  0  0  0  0  0  0  0  0  0
   -2.1126   -0.4125    0.0000 C   0  0  0  0  0  0  0  0  0  0  0  0
   -2.1126    0.4125    0.0000 C   0  0  0  0  0  0  0  0  0  0  0  0
   -1.3981    0.8250    0.0000 C   0  0  0  0  0  0  0  0  0  0  0  0
   -1.3981    1.6500    0.0000 O   0  0  0  0  0  0  0  0  0  0  0  0
   -0.6836    0.4125    0.0000 C   0  0  0  0  0  0  0  0  0  0  0  0
    0.0308    0.0000    0.0000 C   0  0  0  0  0  0  0  0  0  0  0  0
    0.7453   -0.4125    0.0000 C   0  0  0  0  0  0  0  0  0  0  0  0
    0.7453   -1.2375    0.0000 N   0  0  0  0  0  0  0  0  0  0  0  0
    0.0308   -1.6500    0.0000 C   0  0  0  0  0  0  0  0  0  0  0  0
    1.4598   -1.6500    0.0000 C   0  0  0  0  0  0  0  0  0  0  0  0
    1.4598   -2.4750    0.0000 O   0  0  0  0  0  0  0  0  0  0  0  0
    2.1742   -1.2375    0.0000 C   0  0  0  0  0  0  0  0  0  0  0  0
    2.1742   -0.4125    0.0000 C   0  0  0  0  0  0  0  0  0  0  0  0
    2.8887    0.0000    0.0000 C   0  0  0  0  0  0  0  0  0  0  0  0
    2.8887    0.8250    0.0000 C   0  0  0  0  0  0  0  0  0  0  0  0
    2.1742    1.2375    0.0000 C   0  0  0  0  0  0  0  0  0  0  0  0
    2.1742    2.0625    0.0000 C   0  0  0  0  0  0  0  0  0  0  0  0
    2.8887    2.4750    0.0000 C   0  0  0  0  0  0  0  0  0  0  0  0
    3.6032    2.0625    0.0000 C   0  0  0  0  0  0  0  0  0  0  0  0
    3.6032    1.2375    0.0000 C   0  0  0  0  0  0  0  0  0  0  0  0
    2.8887   -1.6500    0.0000 C   0  0  0  0  0  0  0  0  0  0  0  0
    3.6032   -1.2375    0.0000 C   0  0  0  0  0  0  0  0  0  0  0  0
    3.6032   -0.4125    0.0000 N   0  0  0  0  0  0  0  0  0  0  0  0
    4.3177   -1.6500    0.0000 O   0  0  0  0  0  0  0  0  0  0  0  0
    5.0321   -1.2375    0.0000 C   0  0  0  0  0  0  0  0  0  0  0  0
  1  2  1  0  0  0  0
  2  3  1  0  0  0  0
  2  4  1  0  0  0  0
  2  5  1  0  0  0  0
  5  6  4  0  0  0  0
  5  7  4  0  0  0  0
  6 12  4  0  0  0  0
  7 11  4  0  0  0  0
  8  9  1  0  0  0  0
  8 11  1  0  0  0  0
  9 10  1  0  0  0  0
  9 15  1  0  0  0  0
  9 16  1  0  0  0  0
 10 19  1  0  0  0  0
 11 12  4  0  0  0  0
 12 13  1  0  0  0  0
 13 14  2  0  0  0  0
 13 15  1  0  0  0  0
 16 17  1  0  0  0  0
 17 18  1  0  0  0  0
 18 19  1  0  0  0  0
 18 20  1  0  0  0  0
 20 21  2  0  0  0  0
 20 22  1  0  0  0  0
 22 23  4  0  0  0  0
 22 31  4  0  0  0  0
 23 24  4  0  0  0  0
 24 25  1  0  0  0  0
 24 33  4  0  0  0  0
 25 26  4  0  0  0  0
 25 30  4  0  0  0  0
 26 27  4  0  0  0  0
 27 28  4  0  0  0  0
 28 29  4  0  0  0  0
 29 30  4  0  0  0  0
 31 32  4  0  0  0  0
 32 33  4  0  0  0  0
 32 34  1  0  0  0  0
 34 35  1  0  0  0  0
M  END
> <From>
www.bindingDB.org

> <BindingDB Reactant_set_id>
1397266

> <Ligand InChI>
InChI=1S/C28H31N3O3S/c1-27(2,3)26-30-24-21(32)16-28(17-22(24)35-26)10-12-31(13-11-28)25(33)19-14-20(29-23(15-19)34-4)18-8-6-5-7-9-18/h5-9,14-15H,10-13,16-17H2,1-4H3

> <Ligand InChI Key>
TWGXZZXMHFWYQZ-UHFFFAOYSA-N

> <BindingDB MonomerID>
663884

> <BindingDB Ligand Name>
US20240109915, Example 69

> <Target Name>
Activating signal cointegrator 1 complex subunit 1

> <Target Source Organism According to Curator or DataSource>


> <Ki (nM)>


> <IC50 (nM)>
 16.1

> <Kd (nM)>


> <EC50 (nM)>


> <kon (M-1-s-1)>


> <koff (s-1)>


> <pH>


> <Temp C>


> <Curation/DataSource>
US Patent

> <Article DOI>


> <BindingDB Entry DOI>
10.7270/Q2348QQ2

> <PMID>


> <PubChem AID>


> <Patent Number>
US20240109915

> <Authors>
Bagley, SW; Bootsma, AN; Choi, C; Dow, RL; Edmonds, DJ; Garcia-Irizarry, CN; Gerstenberger, BS; Ingle, G; O''Brien, JG; Parikh, MD; Rescourio, GC; Schmitt, DC

> <Institution>
Pfizer

> <Link to Ligand in BindingDB>
http://www.bindingdb.org/bind/chemsearch/marvin/MolStructure.jsp?monomerid=663884

> <Link to Ligand-Target Pair in BindingDB>
http://www.bindingdb.org/jsp/dbsearch/PrimarySearch_ki.jsp?energyterm=kJ/mole&tag=pol&polymerid=735&target=Activating+signal+cointegrator+1+complex+subunit+1&column=ki&startPg=0&Increment=50&submit=Search

> <Link to Ligand-Target Pair in BindingDB>
http://www.bindingdb.org/jsp/dbsearch/PrimarySearch_ki.jsp?energyterm=kJ/mole&tag=r21&monomerid=663884&enzyme=Activating+signal+cointegrator+1+complex+subunit+1&column=ki&startPg=0&Increment=50&submit=Search

> <Ligand HET ID in PDB>


> <PDB ID(s) for Ligand-Target Complex>


> <PubChem CID>


> <PubChem SID>


> <ChEBI ID of Ligand>


> <ChEMBL ID of Ligand>


> <DrugBank ID of Ligand>


> <IUPHAR_GRAC ID of Ligand>


> <KEGG ID of Ligand>


> <ZINC ID of Ligand>


> <Number of Protein Chains in Target (bigger than 1 implies a multichain complex)>
1

> <BindingDB Target Chain Sequence>
MEVLRPQLIRIDGRNYRKNPVQEQTYQHEEDEEDFYQGSMECADEPCDAYEVEQTPQGFRSTLRAPSLLYNLIHLNTSNDCGFQKITLDCQNIYTWKSRHIVGKRGDTRKKIEMETKTSISIPKPGQDGEIVITGQHRNGVISARTRIDVLLDTFRRKQPFTHFLAFFLNEVEVQEGFLRFQEEVLAKCSMDHGVDSSIFQNPKKLHLTIGMLVLLSEEEIQQTCEMLQQCKEEFINDISGGKPLEVEMAGIEYMNDDPGMVDVLYAKVHMKDGSNRLQELVDRVLERFQASGLIVKEWNSVKLHATVMNTLFRKDPNAEGRYNLYTAEGKYIFKERESFDGRNILKSFALLPRLEYNDAISAHCNLCLPGSSDSPASASQVAGITGVSDAYSQSLPGKS

> <PDB ID(s) of Target Chain>


> <UniProt (SwissProt) Recommended Name of Target Chain>
Activating signal cointegrator 1 complex subunit 1

> <UniProt (SwissProt) Entry Name of Target Chain>
ASCC1_HUMAN

> <UniProt (SwissProt) Primary ID of Target Chain>
Q8N9N2

> <UniProt (SwissProt) Secondary ID(s) of Target Chain>
Q5SW06 Q5SW07 Q96EI8 Q9Y307

> <UniProt (SwissProt) Alternative ID(s) of Target Chain>


> <UniProt (TrEMBL) Submitted Name of Target Chain>


> <UniProt (TrEMBL) Entry Name of Target Chain>


> <UniProt (TrEMBL) Primary ID of Target Chain>


> <UniProt (TrEMBL) Secondary ID(s) of Target Chain>


> <UniProt (TrEMBL) Alternative ID(s) of Target Chain>


$$$$
00310001.cdx
  Mrv0541 06272400352D          

 32 36  0  0  0  0            999 V2000
   -5.0321    0.4125    0.0000 C   0  0  0  0  0  0  0  0  0  0  0  0
   -4.2071    0.4125    0.0000 C   0  0  0  0  0  0  0  0  0  0  0  0
   -4.6196    1.1270    0.0000 C   0  0  0  0  0  0  0  0  0  0  0  0
   -4.6196   -0.3020    0.0000 C   0  0  0  0  0  0  0  0  0  0  0  0
   -3.3821    0.4125    0.0000 C   0  0  0  0  0  0  0  0  0  0  0  0
   -2.8972    1.0799    0.0000 N   0  0  0  0  0  0  0  0  0  0  0  0
   -2.8972   -0.2549    0.0000 S   0  0  0  0  0  0  0  0  0  0  0  0
   -1.3981   -0.4125    0.0000 C   0  0  0  0  0  0  0  0  0  0  0  0
   -0.6836    0.0000    0.0000 C   0  0  0  0  0  0  0  0  0  0  0  0
   -0.6836   -0.8250    0.0000 C   0  0  0  0  0  0  0  0  0  0  0  0
   -2.1126    0.0000    0.0000 C   0  0  0  0  0  0  0  0  0  0  0  0
   -2.1126    0.8250    0.0000 C   0  0  0  0  0  0  0  0  0  0  0  0
   -1.3981    1.2375    0.0000 C   0  0  0  0  0  0  0  0  0  0  0  0
   -1.3981    2.0625    0.0000 O   0  0  0  0  0  0  0  0  0  0  0  0
   -0.6836    0.8250    0.0000 C   0  0  0  0  0  0  0  0  0  0  0  0
    0.0308    0.4125    0.0000 C   0  0  0  0  0  0  0  0  0  0  0  0
    0.7453    0.0000    0.0000 C   0  0  0  0  0  0  0  0  0  0  0  0
    0.7453   -0.8250    0.0000 N   0  0  0  0  0  0  0  0  0  0  0  0
    0.0308   -1.2375    0.0000 C   0  0  0  0  0  0  0  0  0  0  0  0
    1.4598   -1.2375    0.0000 C   0  0  0  0  0  0  0  0  0  0  0  0
    1.4598   -2.0625    0.0000 O   0  0  0  0  0  0  0  0  0  0  0  0
    2.1742   -0.8250    0.0000 C   0  0  0  0  0  0  0  0  0  0  0  0
    2.1742    0.0000    0.0000 C   0  0  0  0  0  0  0  0  0  0  0  0
    2.8887    0.4125    0.0000 C   0  0  0  0  0  0  0  0  0  0  0  0
    3.6032    0.0000    0.0000 C   0  0  0  0  0  0  0  0  0  0  0  0
    3.6032   -0.8250    0.0000 C   0  0  0  0  0  0  0  0  0  0  0  0
    4.3177   -1.2375    0.0000 O   0  0  0  0  0  0  0  0  0  0  0  0
    2.8887   -1.2375    0.0000 C   0  0  0  0  0  0  0  0  0  0  0  0
    5.0321   -0.8250    0.0000 C   0  0  0  0  0  0  0  0  0  0  0  0
    2.7172    1.2195    0.0000 C   0  0  0  0  0  0  0  0  0  0  0  0
    1.8967    1.3057    0.0000 N   0  0  0  0  0  0  0  0  0  0  0  0
    1.5611    0.5520    0.0000 N   0  0  0  0  0  0  0  0  0  0  0  0
  1  2  1  0  0  0  0
  2  3  1  0  0  0  0
  2  4  1  0  0  0  0
  2  5  1  0  0  0  0
  5  6  4  0  0  0  0
  5  7  4  0  0  0  0
  6 12  4  0  0  0  0
  7 11  4  0  0  0  0
  8  9  1  0  0  0  0
  8 11  1  0  0  0  0
  9 10  1  0  0  0  0
  9 15  1  0  0  0  0
  9 16  1  0  0  0  0
 10 19  1  0  0  0  0
 11 12  4  0  0  0  0
 12 13  1  0  0  0  0
 13 14  2  0  0  0  0
 13 15  1  0  0  0  0
 16 17  1  0  0  0  0
 17 18  1  0  0  0  0
 18 19  1  0  0  0  0
 18 20  1  0  0  0  0
 20 21  2  0  0  0  0
 20 22  1  0  0  0  0
 22 23  4  0  0  0  0
 22 28  4  0  0  0  0
 23 24  4  0  0  0  0
 24 25  4  0  0  0  0
 25 26  4  0  0  0  0
 26 27  1  0  0  0  0
 26 28  4  0  0  0  0
 27 29  1  0  0  0  0
 24 30  4  0  0  0  0
 30 31  4  0  0  0  0
 31 32  4  0  0  0  0
 32 23  4  0  0  0  0
M  STY  1   1 DAT
M  SAL   1  1  32
M  SDT   1 MRV_IMPLICIT_H                                        
M  SDD   1     0.0000    0.0000    DR    ALL  0       0  
M  SED   1 IMPL_H1
M  END
> <From>
www.bindingDB.org

> <BindingDB Reactant_set_id>
1397272

> <Ligand InChI>
InChI=1S/C24H28N4O3S/c1-23(2,3)22-26-20-17(29)11-24(12-18(20)32-22)5-7-28(8-6-24)21(30)16-10-15(31-4)9-14-13-25-27-19(14)16/h9-10,13H,5-8,11-12H2,1-4H3,(H,25,27)

> <Ligand InChI Key>
COGRCECEAWGUBS-UHFFFAOYSA-N

> <BindingDB MonomerID>
663890

> <BindingDB Ligand Name>
US20240109915, Example 75

> <Target Name>
Activating signal cointegrator 1 complex subunit 1

> <Target Source Organism According to Curator or DataSource>


> <Ki (nM)>


> <IC50 (nM)>
 17.6

> <Kd (nM)>


> <EC50 (nM)>


> <kon (M-1-s-1)>


> <koff (s-1)>


> <pH>


> <Temp C>


> <Curation/DataSource>
US Patent

> <Article DOI>


> <BindingDB Entry DOI>
10.7270/Q2348QQ2

> <PMID>


> <PubChem AID>


> <Patent Number>
US20240109915

> <Authors>
Bagley, SW; Bootsma, AN; Choi, C; Dow, RL; Edmonds, DJ; Garcia-Irizarry, CN; Gerstenberger, BS; Ingle, G; O''Brien, JG; Parikh, MD; Rescourio, GC; Schmitt, DC

> <Institution>
Pfizer

> <Link to Ligand in BindingDB>
http://www.bindingdb.org/bind/chemsearch/marvin/MolStructure.jsp?monomerid=663890

> <Link to Ligand-Target Pair in BindingDB>
http://www.bindingdb.org/jsp/dbsearch/PrimarySearch_ki.jsp?energyterm=kJ/mole&tag=pol&polymerid=735&target=Activating+signal+cointegrator+1+complex+subunit+1&column=ki&startPg=0&Increment=50&submit=Search

> <Link to Ligand-Target Pair in BindingDB>
http://www.bindingdb.org/jsp/dbsearch/PrimarySearch_ki.jsp?energyterm=kJ/mole&tag=r21&monomerid=663890&enzyme=Activating+signal+cointegrator+1+complex+subunit+1&column=ki&startPg=0&Increment=50&submit=Search

> <Ligand HET ID in PDB>


> <PDB ID(s) for Ligand-Target Complex>


> <PubChem CID>


> <PubChem SID>


> <ChEBI ID of Ligand>


> <ChEMBL ID of Ligand>


> <DrugBank ID of Ligand>


> <IUPHAR_GRAC ID of Ligand>


> <KEGG ID of Ligand>


> <ZINC ID of Ligand>


> <Number of Protein Chains in Target (bigger than 1 implies a multichain complex)>
1

> <BindingDB Target Chain Sequence>
MEVLRPQLIRIDGRNYRKNPVQEQTYQHEEDEEDFYQGSMECADEPCDAYEVEQTPQGFRSTLRAPSLLYNLIHLNTSNDCGFQKITLDCQNIYTWKSRHIVGKRGDTRKKIEMETKTSISIPKPGQDGEIVITGQHRNGVISARTRIDVLLDTFRRKQPFTHFLAFFLNEVEVQEGFLRFQEEVLAKCSMDHGVDSSIFQNPKKLHLTIGMLVLLSEEEIQQTCEMLQQCKEEFINDISGGKPLEVEMAGIEYMNDDPGMVDVLYAKVHMKDGSNRLQELVDRVLERFQASGLIVKEWNSVKLHATVMNTLFRKDPNAEGRYNLYTAEGKYIFKERESFDGRNILKSFALLPRLEYNDAISAHCNLCLPGSSDSPASASQVAGITGVSDAYSQSLPGKS

> <PDB ID(s) of Target Chain>


> <UniProt (SwissProt) Recommended Name of Target Chain>
Activating signal cointegrator 1 complex subunit 1

> <UniProt (SwissProt) Entry Name of Target Chain>
ASCC1_HUMAN

> <UniProt (SwissProt) Primary ID of Target Chain>
Q8N9N2

> <UniProt (SwissProt) Secondary ID(s) of Target Chain>
Q5SW06 Q5SW07 Q96EI8 Q9Y307

> <UniProt (SwissProt) Alternative ID(s) of Target Chain>


> <UniProt (TrEMBL) Submitted Name of Target Chain>


> <UniProt (TrEMBL) Entry Name of Target Chain>


> <UniProt (TrEMBL) Primary ID of Target Chain>


> <UniProt (TrEMBL) Secondary ID(s) of Target Chain>


> <UniProt (TrEMBL) Alternative ID(s) of Target Chain>


$$$$
00329001.cdx
  Mrv0541 06272400352D          

 32 36  0  0  0  0            999 V2000
   -5.0321    0.4125    0.0000 C   0  0  0  0  0  0  0  0  0  0  0  0
   -4.2071    0.4125    0.0000 C   0  0  0  0  0  0  0  0  0  0  0  0
   -4.6196    1.1270    0.0000 C   0  0  0  0  0  0  0  0  0  0  0  0
   -4.6196   -0.3020    0.0000 C   0  0  0  0  0  0  0  0  0  0  0  0
   -3.3821    0.4125    0.0000 C   0  0  0  0  0  0  0  0  0  0  0  0
   -2.8972    1.0799    0.0000 N   0  0  0  0  0  0  0  0  0  0  0  0
   -2.8972   -0.2549    0.0000 S   0  0  0  0  0  0  0  0  0  0  0  0
   -0.6836    0.0000    0.0000 C   0  0  0  0  0  0  0  0  0  0  0  0
   -0.6836   -0.8250    0.0000 C   0  0  0  0  0  0  0  0  0  0  0  0
    0.0308   -1.2375    0.0000 C   0  0  0  0  0  0  0  0  0  0  0  0
   -1.3981   -0.4125    0.0000 C   0  0  0  0  0  0  0  0  0  0  0  0
   -2.1126    0.0000    0.0000 C   0  0  0  0  0  0  0  0  0  0  0  0
   -2.1126    0.8250    0.0000 C   0  0  0  0  0  0  0  0  0  0  0  0
   -1.3981    1.2375    0.0000 C   0  0  0  0  0  0  0  0  0  0  0  0
   -1.3981    2.0625    0.0000 O   0  0  0  0  0  0  0  0  0  0  0  0
   -0.6836    0.8250    0.0000 C   0  0  0  0  0  0  0  0  0  0  0  0
    0.0308    0.4125    0.0000 C   0  0  0  0  0  0  0  0  0  0  0  0
    0.7453    0.0000    0.0000 C   0  0  0  0  0  0  0  0  0  0  0  0
    0.7453   -0.8250    0.0000 N   0  0  0  0  0  0  0  0  0  0  0  0
    2.1742   -0.8250    0.0000 C   0  0  0  0  0  0  0  0  0  0  0  0
    2.8887   -1.2375    0.0000 C   0  0  0  0  0  0  0  0  0  0  0  0
    2.8887   -2.0625    0.0000 N   0  0  0  0  0  0  0  0  0  0  0  0
    1.4598   -1.2375    0.0000 C   0  0  0  0  0  0  0  0  0  0  0  0
    1.4598   -2.0625    0.0000 O   0  0  0  0  0  0  0  0  0  0  0  0
    2.1742    0.0000    0.0000 C   0  0  0  0  0  0  0  0  0  0  0  0
    2.8887    0.4125    0.0000 N   0  0  0  0  0  0  0  0  0  0  0  0
    3.6032   -0.8250    0.0000 C   0  0  0  0  0  0  0  0  0  0  0  0
    3.6032    0.0000    0.0000 C   0  0  0  0  0  0  0  0  0  0  0  0
    4.3177    0.4125    0.0000 C   0  0  0  0  0  0  0  0  0  0  0  0
    5.0321    0.0000    0.0000 C   0  0  0  0  0  0  0  0  0  0  0  0
    5.0321   -0.8250    0.0000 C   0  0  0  0  0  0  0  0  0  0  0  0
    4.3177   -1.2375    0.0000 C   0  0  0  0  0  0  0  0  0  0  0  0
  1  2  1  0  0  0  0
  2  3  1  0  0  0  0
  2  4  1  0  0  0  0
  2  5  1  0  0  0  0
  5  6  4  0  0  0  0
  5  7  4  0  0  0  0
  6 13  4  0  0  0  0
  7 12  4  0  0  0  0
  8  9  1  0  0  0  0
  8 11  1  0  0  0  0
  8 16  1  0  0  0  0
  8 17  1  0  0  0  0
  9 10  1  0  0  0  0
 10 19  1  0  0  0  0
 11 12  1  0  0  0  0
 12 13  4  0  0  0  0
 13 14  1  0  0  0  0
 14 15  2  0  0  0  0
 14 16  1  0  0  0  0
 17 18  1  0  0  0  0
 18 19  1  0  0  0  0
 19 23  1  0  0  0  0
 20 21  4  0  0  0  0
 20 23  1  0  0  0  0
 20 25  4  0  0  0  0
 21 22  1  0  0  0  0
 21 27  4  0  0  0  0
 23 24  2  0  0  0  0
 25 26  4  0  0  0  0
 26 28  4  0  0  0  0
 27 28  4  0  0  0  0
 27 32  4  0  0  0  0
 28 29  4  0  0  0  0
 29 30  4  0  0  0  0
 30 31  4  0  0  0  0
 31 32  4  0  0  0  0
M  END
> <From>
www.bindingDB.org

> <BindingDB Reactant_set_id>
1397291

> <Ligand InChI>
InChI=1S/C25H28N4O2S/c1-24(2,3)23-28-21-18(30)12-25(13-19(21)32-23)8-10-29(11-9-25)22(31)16-14-27-17-7-5-4-6-15(17)20(16)26/h4-7,14H,8-13H2,1-3H3,(H2,26,27)

> <Ligand InChI Key>
HYMZCRLURNCUCB-UHFFFAOYSA-N

> <BindingDB MonomerID>
663909

> <BindingDB Ligand Name>
US20240109915, Example 94

> <Target Name>
Activating signal cointegrator 1 complex subunit 1

> <Target Source Organism According to Curator or DataSource>


> <Ki (nM)>


> <IC50 (nM)>
 17.9

> <Kd (nM)>


> <EC50 (nM)>


> <kon (M-1-s-1)>


> <koff (s-1)>


> <pH>


> <Temp C>


> <Curation/DataSource>
US Patent

> <Article DOI>


> <BindingDB Entry DOI>
10.7270/Q2348QQ2

> <PMID>


> <PubChem AID>


> <Patent Number>
US20240109915

> <Authors>
Bagley, SW; Bootsma, AN; Choi, C; Dow, RL; Edmonds, DJ; Garcia-Irizarry, CN; Gerstenberger, BS; Ingle, G; O''Brien, JG; Parikh, MD; Rescourio, GC; Schmitt, DC

> <Institution>
Pfizer

> <Link to Ligand in BindingDB>
http://www.bindingdb.org/bind/chemsearch/marvin/MolStructure.jsp?monomerid=663909

> <Link to Ligand-Target Pair in BindingDB>
http://www.bindingdb.org/jsp/dbsearch/PrimarySearch_ki.jsp?energyterm=kJ/mole&tag=pol&polymerid=735&target=Activating+signal+cointegrator+1+complex+subunit+1&column=ki&startPg=0&Increment=50&submit=Search

> <Link to Ligand-Target Pair in BindingDB>
http://www.bindingdb.org/jsp/dbsearch/PrimarySearch_ki.jsp?energyterm=kJ/mole&tag=r21&monomerid=663909&enzyme=Activating+signal+cointegrator+1+complex+subunit+1&column=ki&startPg=0&Increment=50&submit=Search

> <Ligand HET ID in PDB>


> <PDB ID(s) for Ligand-Target Complex>


> <PubChem CID>


> <PubChem SID>


> <ChEBI ID of Ligand>


> <ChEMBL ID of Ligand>


> <DrugBank ID of Ligand>


> <IUPHAR_GRAC ID of Ligand>


> <KEGG ID of Ligand>


> <ZINC ID of Ligand>


> <Number of Protein Chains in Target (bigger than 1 implies a multichain complex)>
1

> <BindingDB Target Chain Sequence>
MEVLRPQLIRIDGRNYRKNPVQEQTYQHEEDEEDFYQGSMECADEPCDAYEVEQTPQGFRSTLRAPSLLYNLIHLNTSNDCGFQKITLDCQNIYTWKSRHIVGKRGDTRKKIEMETKTSISIPKPGQDGEIVITGQHRNGVISARTRIDVLLDTFRRKQPFTHFLAFFLNEVEVQEGFLRFQEEVLAKCSMDHGVDSSIFQNPKKLHLTIGMLVLLSEEEIQQTCEMLQQCKEEFINDISGGKPLEVEMAGIEYMNDDPGMVDVLYAKVHMKDGSNRLQELVDRVLERFQASGLIVKEWNSVKLHATVMNTLFRKDPNAEGRYNLYTAEGKYIFKERESFDGRNILKSFALLPRLEYNDAISAHCNLCLPGSSDSPASASQVAGITGVSDAYSQSLPGKS

> <PDB ID(s) of Target Chain>


> <UniProt (SwissProt) Recommended Name of Target Chain>
Activating signal cointegrator 1 complex subunit 1

> <UniProt (SwissProt) Entry Name of Target Chain>
ASCC1_HUMAN

> <UniProt (SwissProt) Primary ID of Target Chain>
Q8N9N2

> <UniProt (SwissProt) Secondary ID(s) of Target Chain>
Q5SW06 Q5SW07 Q96EI8 Q9Y307

> <UniProt (SwissProt) Alternative ID(s) of Target Chain>


> <UniProt (TrEMBL) Submitted Name of Target Chain>


> <UniProt (TrEMBL) Entry Name of Target Chain>


> <UniProt (TrEMBL) Primary ID of Target Chain>


> <UniProt (TrEMBL) Secondary ID(s) of Target Chain>


> <UniProt (TrEMBL) Alternative ID(s) of Target Chain>


$$$$
00288001.cdx
  Mrv0541 06272400352D          

 33 37  0  0  0  0            999 V2000
   -5.0321    0.4125    0.0000 C   0  0  0  0  0  0  0  0  0  0  0  0
   -4.2071    0.4125    0.0000 C   0  0  0  0  0  0  0  0  0  0  0  0
   -4.6196   -0.3020    0.0000 C   0  0  0  0  0  0  0  0  0  0  0  0
   -4.6196    1.1270    0.0000 C   0  0  0  0  0  0  0  0  0  0  0  0
   -3.3821    0.4125    0.0000 C   0  0  0  0  0  0  0  0  0  0  0  0
   -2.8972    1.0799    0.0000 N   0  0  0  0  0  0  0  0  0  0  0  0
   -2.8972   -0.2549    0.0000 S   0  0  0  0  0  0  0  0  0  0  0  0
   -1.3981   -0.4125    0.0000 C   0  0  0  0  0  0  0  0  0  0  0  0
   -0.6836    0.0000    0.0000 C   0  0  0  0  0  0  0  0  0  0  0  0
   -0.6836   -0.8250    0.0000 C   0  0  0  0  0  0  0  0  0  0  0  0
   -2.1126    0.0000    0.0000 C   0  0  0  0  0  0  0  0  0  0  0  0
   -2.1126    0.8250    0.0000 C   0  0  0  0  0  0  0  0  0  0  0  0
   -1.3981    1.2375    0.0000 C   0  0  0  0  0  0  0  0  0  0  0  0
   -1.3981    2.0625    0.0000 O   0  0  0  0  0  0  0  0  0  0  0  0
   -0.6836    0.8250    0.0000 C   0  0  0  0  0  0  0  0  0  0  0  0
    0.0308    0.4125    0.0000 C   0  0  0  0  0  0  0  0  0  0  0  0
    0.7453    0.0000    0.0000 C   0  0  0  0  0  0  0  0  0  0  0  0
    0.7453   -0.8250    0.0000 N   0  0  0  0  0  0  0  0  0  0  0  0
    0.0308   -1.2375    0.0000 C   0  0  0  0  0  0  0  0  0  0  0  0
    1.4598    1.2375    0.0000 C   0  0  0  0  0  0  0  0  0  0  0  0
    1.4598    0.4125    0.0000 N   0  0  0  0  0  0  0  0  0  0  0  0
    1.4598   -1.2375    0.0000 C   0  0  0  0  0  0  0  0  0  0  0  0
    1.4598   -2.0625    0.0000 O   0  0  0  0  0  0  0  0  0  0  0  0
    2.1742   -0.8250    0.0000 C   0  0  0  0  0  0  0  0  0  0  0  0
    2.1742    0.0000    0.0000 C   0  0  0  0  0  0  0  0  0  0  0  0
    2.8887    0.4125    0.0000 C   0  0  0  0  0  0  0  0  0  0  0  0
    3.6032    0.0000    0.0000 C   0  0  0  0  0  0  0  0  0  0  0  0
    4.3177    0.4125    0.0000 C   0  0  0  0  0  0  0  0  0  0  0  0
    5.0321    0.0000    0.0000 C   0  0  0  0  0  0  0  0  0  0  0  0
    5.0321   -0.8250    0.0000 C   0  0  0  0  0  0  0  0  0  0  0  0
    4.3177   -1.2375    0.0000 C   0  0  0  0  0  0  0  0  0  0  0  0
    3.6032   -0.8250    0.0000 C   0  0  0  0  0  0  0  0  0  0  0  0
    2.8887   -1.2375    0.0000 C   0  0  0  0  0  0  0  0  0  0  0  0
  1  2  1  0  0  0  0
  2  3  1  0  0  0  0
  2  4  1  0  0  0  0
  2  5  1  0  0  0  0
  5  6  4  0  0  0  0
  5  7  4  0  0  0  0
  6 12  4  0  0  0  0
  7 11  4  0  0  0  0
  8  9  1  0  0  0  0
  8 11  1  0  0  0  0
  9 10  1  0  0  0  0
  9 15  1  0  0  0  0
  9 16  1  0  0  0  0
 10 19  1  0  0  0  0
 11 12  4  0  0  0  0
 12 13  1  0  0  0  0
 13 14  2  0  0  0  0
 13 15  1  0  0  0  0
 16 17  1  0  0  0  0
 17 18  1  0  0  0  0
 18 19  1  0  0  0  0
 18 22  1  0  0  0  0
 20 21  1  0  0  0  0
 21 25  1  0  0  0  0
 22 23  2  0  0  0  0
 22 24  1  0  0  0  0
 24 25  4  0  0  0  0
 24 33  4  0  0  0  0
 25 26  4  0  0  0  0
 26 27  4  0  0  0  0
 27 28  4  0  0  0  0
 27 32  4  0  0  0  0
 28 29  4  0  0  0  0
 29 30  4  0  0  0  0
 30 31  4  0  0  0  0
 31 32  4  0  0  0  0
 32 33  4  0  0  0  0
M  END
> <From>
www.bindingDB.org

> <BindingDB Reactant_set_id>
1397252

> <Ligand InChI>
InChI=1S/C27H31N3O2S/c1-26(2,3)25-29-23-21(31)15-27(16-22(23)33-25)9-11-30(12-10-27)24(32)19-13-17-7-5-6-8-18(17)14-20(19)28-4/h5-8,13-14,28H,9-12,15-16H2,1-4H3

> <Ligand InChI Key>
PKHXZWNVAMJHPJ-UHFFFAOYSA-N

> <BindingDB MonomerID>
663870

> <BindingDB Ligand Name>
US20240109915, Example 53

> <Target Name>
Activating signal cointegrator 1 complex subunit 1

> <Target Source Organism According to Curator or DataSource>


> <Ki (nM)>


> <IC50 (nM)>
 18.1

> <Kd (nM)>


> <EC50 (nM)>


> <kon (M-1-s-1)>


> <koff (s-1)>


> <pH>


> <Temp C>


> <Curation/DataSource>
US Patent

> <Article DOI>


> <BindingDB Entry DOI>
10.7270/Q2348QQ2

> <PMID>


> <PubChem AID>


> <Patent Number>
US20240109915

> <Authors>
Bagley, SW; Bootsma, AN; Choi, C; Dow, RL; Edmonds, DJ; Garcia-Irizarry, CN; Gerstenberger, BS; Ingle, G; O''Brien, JG; Parikh, MD; Rescourio, GC; Schmitt, DC

> <Institution>
Pfizer

> <Link to Ligand in BindingDB>
http://www.bindingdb.org/bind/chemsearch/marvin/MolStructure.jsp?monomerid=663870

> <Link to Ligand-Target Pair in BindingDB>
http://www.bindingdb.org/jsp/dbsearch/PrimarySearch_ki.jsp?energyterm=kJ/mole&tag=pol&polymerid=735&target=Activating+signal+cointegrator+1+complex+subunit+1&column=ki&startPg=0&Increment=50&submit=Search

> <Link to Ligand-Target Pair in BindingDB>
http://www.bindingdb.org/jsp/dbsearch/PrimarySearch_ki.jsp?energyterm=kJ/mole&tag=r21&monomerid=663870&enzyme=Activating+signal+cointegrator+1+complex+subunit+1&column=ki&startPg=0&Increment=50&submit=Search

> <Ligand HET ID in PDB>


> <PDB ID(s) for Ligand-Target Complex>


> <PubChem CID>


> <PubChem SID>


> <ChEBI ID of Ligand>


> <ChEMBL ID of Ligand>


> <DrugBank ID of Ligand>


> <IUPHAR_GRAC ID of Ligand>


> <KEGG ID of Ligand>


> <ZINC ID of Ligand>


> <Number of Protein Chains in Target (bigger than 1 implies a multichain complex)>
1

> <BindingDB Target Chain Sequence>
MEVLRPQLIRIDGRNYRKNPVQEQTYQHEEDEEDFYQGSMECADEPCDAYEVEQTPQGFRSTLRAPSLLYNLIHLNTSNDCGFQKITLDCQNIYTWKSRHIVGKRGDTRKKIEMETKTSISIPKPGQDGEIVITGQHRNGVISARTRIDVLLDTFRRKQPFTHFLAFFLNEVEVQEGFLRFQEEVLAKCSMDHGVDSSIFQNPKKLHLTIGMLVLLSEEEIQQTCEMLQQCKEEFINDISGGKPLEVEMAGIEYMNDDPGMVDVLYAKVHMKDGSNRLQELVDRVLERFQASGLIVKEWNSVKLHATVMNTLFRKDPNAEGRYNLYTAEGKYIFKERESFDGRNILKSFALLPRLEYNDAISAHCNLCLPGSSDSPASASQVAGITGVSDAYSQSLPGKS

> <PDB ID(s) of Target Chain>


> <UniProt (SwissProt) Recommended Name of Target Chain>
Activating signal cointegrator 1 complex subunit 1

> <UniProt (SwissProt) Entry Name of Target Chain>
ASCC1_HUMAN

> <UniProt (SwissProt) Primary ID of Target Chain>
Q8N9N2

> <UniProt (SwissProt) Secondary ID(s) of Target Chain>
Q5SW06 Q5SW07 Q96EI8 Q9Y307

> <UniProt (SwissProt) Alternative ID(s) of Target Chain>


> <UniProt (TrEMBL) Submitted Name of Target Chain>


> <UniProt (TrEMBL) Entry Name of Target Chain>


> <UniProt (TrEMBL) Primary ID of Target Chain>


> <UniProt (TrEMBL) Secondary ID(s) of Target Chain>


> <UniProt (TrEMBL) Alternative ID(s) of Target Chain>


$$$$
00328001.cdx
  Mrv0541 06272400352D          

 32 36  0  0  0  0            999 V2000
   -3.3821    0.4125    0.0000 C   0  0  0  0  0  0  0  0  0  0  0  0
   -2.8972    1.0799    0.0000 N   0  0  0  0  0  0  0  0  0  0  0  0
   -4.2071    0.4125    0.0000 C   0  0  0  0  0  0  0  0  0  0  0  0
   -2.8972   -0.2549    0.0000 S   0  0  0  0  0  0  0  0  0  0  0  0
   -5.0321    0.4125    0.0000 C   0  0  0  0  0  0  0  0  0  0  0  0
   -4.6196    1.1270    0.0000 C   0  0  0  0  0  0  0  0  0  0  0  0
   -4.6196   -0.3020    0.0000 C   0  0  0  0  0  0  0  0  0  0  0  0
   -1.3981   -0.4125    0.0000 C   0  0  0  0  0  0  0  0  0  0  0  0
   -0.6836    0.0000    0.0000 C   0  0  0  0  0  0  0  0  0  0  0  0
   -0.6836   -0.8250    0.0000 C   0  0  0  0  0  0  0  0  0  0  0  0
   -2.1126    0.0000    0.0000 C   0  0  0  0  0  0  0  0  0  0  0  0
   -2.1126    0.8250    0.0000 C   0  0  0  0  0  0  0  0  0  0  0  0
   -1.3981    1.2375    0.0000 C   0  0  0  0  0  0  0  0  0  0  0  0
   -1.3981    2.0625    0.0000 O   0  0  0  0  0  0  0  0  0  0  0  0
   -0.6836    0.8250    0.0000 C   0  0  0  0  0  0  0  0  0  0  0  0
    0.0308    0.4125    0.0000 C   0  0  0  0  0  0  0  0  0  0  0  0
    0.7453    0.0000    0.0000 C   0  0  0  0  0  0  0  0  0  0  0  0
    0.7453   -0.8250    0.0000 N   0  0  0  0  0  0  0  0  0  0  0  0
    0.0308   -1.2375    0.0000 C   0  0  0  0  0  0  0  0  0  0  0  0
    1.4598   -1.2375    0.0000 C   0  0  0  0  0  0  0  0  0  0  0  0
    1.4598   -2.0625    0.0000 O   0  0  0  0  0  0  0  0  0  0  0  0
    2.1742   -0.8250    0.0000 C   0  0  0  0  0  0  0  0  0  0  0  0
    2.1742    0.0000    0.0000 C   0  0  0  0  0  0  0  0  0  0  0  0
    2.8887    0.4125    0.0000 C   0  0  0  0  0  0  0  0  0  0  0  0
    2.8887    1.2375    0.0000 C   0  0  0  0  0  0  0  0  0  0  0  0
    3.6032    0.0000    0.0000 C   0  0  0  0  0  0  0  0  0  0  0  0
    3.6032   -0.8250    0.0000 C   0  0  0  0  0  0  0  0  0  0  0  0
    4.3177   -1.2375    0.0000 C   0  0  0  0  0  0  0  0  0  0  0  0
    5.0321   -0.8250    0.0000 C   0  0  0  0  0  0  0  0  0  0  0  0
    5.0321    0.0000    0.0000 C   0  0  0  0  0  0  0  0  0  0  0  0
    4.3177    0.4125    0.0000 N   0  0  0  0  0  0  0  0  0  0  0  0
    2.8887   -1.2375    0.0000 C   0  0  0  0  0  0  0  0  0  0  0  0
  1  2  4  0  0  0  0
  1  3  1  0  0  0  0
  1  4  4  0  0  0  0
  2 12  4  0  0  0  0
  3  5  1  0  0  0  0
  3  6  1  0  0  0  0
  3  7  1  0  0  0  0
  4 11  4  0  0  0  0
  8  9  1  0  0  0  0
  8 11  1  0  0  0  0
 10  9  1  0  0  0  0
  9 15  1  0  0  0  0
  9 16  1  0  0  0  0
 10 19  1  0  0  0  0
 11 12  4  0  0  0  0
 12 13  1  0  0  0  0
 13 14  2  0  0  0  0
 13 15  1  0  0  0  0
 16 17  1  0  0  0  0
 17 18  1  0  0  0  0
 18 19  1  0  0  0  0
 18 20  1  0  0  0  0
 20 21  2  0  0  0  0
 20 22  1  0  0  0  0
 22 23  4  0  0  0  0
 22 32  4  0  0  0  0
 23 24  4  0  0  0  0
 24 25  1  0  0  0  0
 24 26  4  0  0  0  0
 26 31  1  0  0  0  0
 26 27  4  0  0  0  0
 27 28  1  0  0  0  0
 27 32  4  0  0  0  0
 28 29  1  0  0  0  0
 29 30  1  0  0  0  0
 30 31  1  0  0  0  0
M  END
> <From>
www.bindingDB.org

> <BindingDB Reactant_set_id>
1397290

> <Ligand InChI>
InChI=1S/C26H33N3O2S/c1-16-12-18(13-17-6-5-9-27-21(16)17)23(31)29-10-7-26(8-11-29)14-19(30)22-20(15-26)32-24(28-22)25(2,3)4/h12-13,27H,5-11,14-15H2,1-4H3

> <Ligand InChI Key>
DPYYMMUNHYORMB-UHFFFAOYSA-N

> <BindingDB MonomerID>
663908

> <BindingDB Ligand Name>
US20240109915, Example 93

> <Target Name>
Activating signal cointegrator 1 complex subunit 1

> <Target Source Organism According to Curator or DataSource>


> <Ki (nM)>


> <IC50 (nM)>
 19.5

> <Kd (nM)>


> <EC50 (nM)>


> <kon (M-1-s-1)>


> <koff (s-1)>


> <pH>


> <Temp C>


> <Curation/DataSource>
US Patent

> <Article DOI>


> <BindingDB Entry DOI>
10.7270/Q2348QQ2

> <PMID>


> <PubChem AID>


> <Patent Number>
US20240109915

> <Authors>
Bagley, SW; Bootsma, AN; Choi, C; Dow, RL; Edmonds, DJ; Garcia-Irizarry, CN; Gerstenberger, BS; Ingle, G; O''Brien, JG; Parikh, MD; Rescourio, GC; Schmitt, DC

> <Institution>
Pfizer

> <Link to Ligand in BindingDB>
http://www.bindingdb.org/bind/chemsearch/marvin/MolStructure.jsp?monomerid=663908

> <Link to Ligand-Target Pair in BindingDB>
http://www.bindingdb.org/jsp/dbsearch/PrimarySearch_ki.jsp?energyterm=kJ/mole&tag=pol&polymerid=735&target=Activating+signal+cointegrator+1+complex+subunit+1&column=ki&startPg=0&Increment=50&submit=Search

> <Link to Ligand-Target Pair in BindingDB>
http://www.bindingdb.org/jsp/dbsearch/PrimarySearch_ki.jsp?energyterm=kJ/mole&tag=r21&monomerid=663908&enzyme=Activating+signal+cointegrator+1+complex+subunit+1&column=ki&startPg=0&Increment=50&submit=Search

> <Ligand HET ID in PDB>


> <PDB ID(s) for Ligand-Target Complex>


> <PubChem CID>


> <PubChem SID>


> <ChEBI ID of Ligand>


> <ChEMBL ID of Ligand>


> <DrugBank ID of Ligand>


> <IUPHAR_GRAC ID of Ligand>


> <KEGG ID of Ligand>


> <ZINC ID of Ligand>


> <Number of Protein Chains in Target (bigger than 1 implies a multichain complex)>
1

> <BindingDB Target Chain Sequence>
MEVLRPQLIRIDGRNYRKNPVQEQTYQHEEDEEDFYQGSMECADEPCDAYEVEQTPQGFRSTLRAPSLLYNLIHLNTSNDCGFQKITLDCQNIYTWKSRHIVGKRGDTRKKIEMETKTSISIPKPGQDGEIVITGQHRNGVISARTRIDVLLDTFRRKQPFTHFLAFFLNEVEVQEGFLRFQEEVLAKCSMDHGVDSSIFQNPKKLHLTIGMLVLLSEEEIQQTCEMLQQCKEEFINDISGGKPLEVEMAGIEYMNDDPGMVDVLYAKVHMKDGSNRLQELVDRVLERFQASGLIVKEWNSVKLHATVMNTLFRKDPNAEGRYNLYTAEGKYIFKERESFDGRNILKSFALLPRLEYNDAISAHCNLCLPGSSDSPASASQVAGITGVSDAYSQSLPGKS

> <PDB ID(s) of Target Chain>


> <UniProt (SwissProt) Recommended Name of Target Chain>
Activating signal cointegrator 1 complex subunit 1

> <UniProt (SwissProt) Entry Name of Target Chain>
ASCC1_HUMAN

> <UniProt (SwissProt) Primary ID of Target Chain>
Q8N9N2

> <UniProt (SwissProt) Secondary ID(s) of Target Chain>
Q5SW06 Q5SW07 Q96EI8 Q9Y307

> <UniProt (SwissProt) Alternative ID(s) of Target Chain>


> <UniProt (TrEMBL) Submitted Name of Target Chain>


> <UniProt (TrEMBL) Entry Name of Target Chain>


> <UniProt (TrEMBL) Primary ID of Target Chain>


> <UniProt (TrEMBL) Secondary ID(s) of Target Chain>


> <UniProt (TrEMBL) Alternative ID(s) of Target Chain>


$$$$
00298001.cdx
  Mrv0541 06272400352D          

 32 36  0  0  0  0            999 V2000
   -3.3821    0.4125    0.0000 C   0  0  0  0  0  0  0  0  0  0  0  0
   -2.8972    1.0799    0.0000 N   0  0  0  0  0  0  0  0  0  0  0  0
   -4.2071    0.4125    0.0000 C   0  0  0  0  0  0  0  0  0  0  0  0
   -2.8972   -0.2549    0.0000 S   0  0  0  0  0  0  0  0  0  0  0  0
   -5.0321    0.4125    0.0000 C   0  0  0  0  0  0  0  0  0  0  0  0
   -4.6196   -0.3020    0.0000 C   0  0  0  0  0  0  0  0  0  0  0  0
   -4.6196    1.1270    0.0000 C   0  0  0  0  0  0  0  0  0  0  0  0
   -0.6836    0.0000    0.0000 C   0  0  0  0  0  0  0  0  0  0  0  0
   -0.6836   -0.8250    0.0000 C   0  0  0  0  0  0  0  0  0  0  0  0
    0.0308   -1.2375    0.0000 C   0  0  0  0  0  0  0  0  0  0  0  0
   -1.3981   -0.4125    0.0000 C   0  0  0  0  0  0  0  0  0  0  0  0
   -2.1126    0.0000    0.0000 C   0  0  0  0  0  0  0  0  0  0  0  0
   -2.1126    0.8250    0.0000 C   0  0  0  0  0  0  0  0  0  0  0  0
   -1.3981    1.2375    0.0000 C   0  0  0  0  0  0  0  0  0  0  0  0
   -1.3981    2.0625    0.0000 O   0  0  0  0  0  0  0  0  0  0  0  0
   -0.6836    0.8250    0.0000 C   0  0  0  0  0  0  0  0  0  0  0  0
    0.0308    0.4125    0.0000 C   0  0  0  0  0  0  0  0  0  0  0  0
    0.7453    0.0000    0.0000 C   0  0  0  0  0  0  0  0  0  0  0  0
    0.7453   -0.8250    0.0000 N   0  0  0  0  0  0  0  0  0  0  0  0
    2.1742   -0.8250    0.0000 C   0  0  0  0  0  0  0  0  0  0  0  0
    2.8887   -1.2375    0.0000 C   0  0  0  0  0  0  0  0  0  0  0  0
    2.8887   -2.0625    0.0000 O   0  0  0  0  0  0  0  0  0  0  0  0
    1.4598   -1.2375    0.0000 C   0  0  0  0  0  0  0  0  0  0  0  0
    1.4598   -2.0625    0.0000 O   0  0  0  0  0  0  0  0  0  0  0  0
    2.1742    0.0000    0.0000 C   0  0  0  0  0  0  0  0  0  0  0  0
    2.8887    0.4125    0.0000 C   0  0  0  0  0  0  0  0  0  0  0  0
    3.6032    0.0000    0.0000 C   0  0  0  0  0  0  0  0  0  0  0  0
    4.3177    0.4125    0.0000 C   0  0  0  0  0  0  0  0  0  0  0  0
    5.0321    0.0000    0.0000 C   0  0  0  0  0  0  0  0  0  0  0  0
    5.0321   -0.8250    0.0000 C   0  0  0  0  0  0  0  0  0  0  0  0
    4.3177   -1.2375    0.0000 C   0  0  0  0  0  0  0  0  0  0  0  0
    3.6032   -0.8250    0.0000 C   0  0  0  0  0  0  0  0  0  0  0  0
  1  2  4  0  0  0  0
  1  3  1  0  0  0  0
  1  4  4  0  0  0  0
  2 13  4  0  0  0  0
  3  5  1  0  0  0  0
  3  6  1  0  0  0  0
  3  7  1  0  0  0  0
  4 12  4  0  0  0  0
  8  9  1  0  0  0  0
  8 11  1  0  0  0  0
  8 16  1  0  0  0  0
  8 17  1  0  0  0  0
  9 10  1  0  0  0  0
 10 19  1  0  0  0  0
 11 12  1  0  0  0  0
 12 13  4  0  0  0  0
 13 14  1  0  0  0  0
 14 15  2  0  0  0  0
 14 16  1  0  0  0  0
 17 18  1  0  0  0  0
 18 19  1  0  0  0  0
 19 23  1  0  0  0  0
 20 21  4  0  0  0  0
 20 23  1  0  0  0  0
 20 25  4  0  0  0  0
 21 22  1  0  0  0  0
 21 32  4  0  0  0  0
 23 24  2  0  0  0  0
 25 26  4  0  0  0  0
 26 27  4  0  0  0  0
 27 28  4  0  0  0  0
 27 32  4  0  0  0  0
 28 29  4  0  0  0  0
 29 30  4  0  0  0  0
 30 31  4  0  0  0  0
 31 32  4  0  0  0  0
M  END
> <From>
www.bindingDB.org

> <BindingDB Reactant_set_id>
1397261

> <Ligand InChI>
InChI=1S/C26H28N2O3S/c1-25(2,3)24-27-21-19(29)14-26(15-20(21)32-24)10-12-28(13-11-26)23(31)18-9-8-16-6-4-5-7-17(16)22(18)30/h4-9,30H,10-15H2,1-3H3

> <Ligand InChI Key>
SXLCCLGIICRBSD-UHFFFAOYSA-N

> <BindingDB MonomerID>
663879

> <BindingDB Ligand Name>
US20240109915, Example 63

> <Target Name>
Activating signal cointegrator 1 complex subunit 1

> <Target Source Organism According to Curator or DataSource>


> <Ki (nM)>


> <IC50 (nM)>
 19.7

> <Kd (nM)>


> <EC50 (nM)>


> <kon (M-1-s-1)>


> <koff (s-1)>


> <pH>


> <Temp C>


> <Curation/DataSource>
US Patent

> <Article DOI>


> <BindingDB Entry DOI>
10.7270/Q2348QQ2

> <PMID>


> <PubChem AID>


> <Patent Number>
US20240109915

> <Authors>
Bagley, SW; Bootsma, AN; Choi, C; Dow, RL; Edmonds, DJ; Garcia-Irizarry, CN; Gerstenberger, BS; Ingle, G; O''Brien, JG; Parikh, MD; Rescourio, GC; Schmitt, DC

> <Institution>
Pfizer

> <Link to Ligand in BindingDB>
http://www.bindingdb.org/bind/chemsearch/marvin/MolStructure.jsp?monomerid=663879

> <Link to Ligand-Target Pair in BindingDB>
http://www.bindingdb.org/jsp/dbsearch/PrimarySearch_ki.jsp?energyterm=kJ/mole&tag=pol&polymerid=735&target=Activating+signal+cointegrator+1+complex+subunit+1&column=ki&startPg=0&Increment=50&submit=Search

> <Link to Ligand-Target Pair in BindingDB>
http://www.bindingdb.org/jsp/dbsearch/PrimarySearch_ki.jsp?energyterm=kJ/mole&tag=r21&monomerid=663879&enzyme=Activating+signal+cointegrator+1+complex+subunit+1&column=ki&startPg=0&Increment=50&submit=Search

> <Ligand HET ID in PDB>


> <PDB ID(s) for Ligand-Target Complex>


> <PubChem CID>


> <PubChem SID>


> <ChEBI ID of Ligand>


> <ChEMBL ID of Ligand>


> <DrugBank ID of Ligand>


> <IUPHAR_GRAC ID of Ligand>


> <KEGG ID of Ligand>


> <ZINC ID of Ligand>


> <Number of Protein Chains in Target (bigger than 1 implies a multichain complex)>
1

> <BindingDB Target Chain Sequence>
MEVLRPQLIRIDGRNYRKNPVQEQTYQHEEDEEDFYQGSMECADEPCDAYEVEQTPQGFRSTLRAPSLLYNLIHLNTSNDCGFQKITLDCQNIYTWKSRHIVGKRGDTRKKIEMETKTSISIPKPGQDGEIVITGQHRNGVISARTRIDVLLDTFRRKQPFTHFLAFFLNEVEVQEGFLRFQEEVLAKCSMDHGVDSSIFQNPKKLHLTIGMLVLLSEEEIQQTCEMLQQCKEEFINDISGGKPLEVEMAGIEYMNDDPGMVDVLYAKVHMKDGSNRLQELVDRVLERFQASGLIVKEWNSVKLHATVMNTLFRKDPNAEGRYNLYTAEGKYIFKERESFDGRNILKSFALLPRLEYNDAISAHCNLCLPGSSDSPASASQVAGITGVSDAYSQSLPGKS

> <PDB ID(s) of Target Chain>


> <UniProt (SwissProt) Recommended Name of Target Chain>
Activating signal cointegrator 1 complex subunit 1

> <UniProt (SwissProt) Entry Name of Target Chain>
ASCC1_HUMAN

> <UniProt (SwissProt) Primary ID of Target Chain>
Q8N9N2

> <UniProt (SwissProt) Secondary ID(s) of Target Chain>
Q5SW06 Q5SW07 Q96EI8 Q9Y307

> <UniProt (SwissProt) Alternative ID(s) of Target Chain>


> <UniProt (TrEMBL) Submitted Name of Target Chain>


> <UniProt (TrEMBL) Entry Name of Target Chain>


> <UniProt (TrEMBL) Primary ID of Target Chain>


> <UniProt (TrEMBL) Secondary ID(s) of Target Chain>


> <UniProt (TrEMBL) Alternative ID(s) of Target Chain>


$$$$
00292001.cdx
  Mrv0541 06272400352D          

 32 36  0  0  0  0            999 V2000
   -5.0321    0.4125    0.0000 C   0  0  0  0  0  0  0  0  0  0  0  0
   -4.2071    0.4125    0.0000 C   0  0  0  0  0  0  0  0  0  0  0  0
   -4.6196   -0.3020    0.0000 C   0  0  0  0  0  0  0  0  0  0  0  0
   -4.6196    1.1270    0.0000 C   0  0  0  0  0  0  0  0  0  0  0  0
   -3.3821    0.4125    0.0000 C   0  0  0  0  0  0  0  0  0  0  0  0
   -2.8972    1.0799    0.0000 N   0  0  0  0  0  0  0  0  0  0  0  0
   -2.8972   -0.2549    0.0000 S   0  0  0  0  0  0  0  0  0  0  0  0
   -1.3981   -0.4125    0.0000 C   0  0  0  0  0  0  0  0  0  0  0  0
   -0.6836    0.0000    0.0000 C   0  0  0  0  0  0  0  0  0  0  0  0
   -0.6836   -0.8250    0.0000 C   0  0  0  0  0  0  0  0  0  0  0  0
   -2.1126    0.0000    0.0000 C   0  0  0  0  0  0  0  0  0  0  0  0
   -2.1126    0.8250    0.0000 C   0  0  0  0  0  0  0  0  0  0  0  0
   -1.3981    1.2375    0.0000 C   0  0  0  0  0  0  0  0  0  0  0  0
   -1.3981    2.0625    0.0000 O   0  0  0  0  0  0  0  0  0  0  0  0
   -0.6836    0.8250    0.0000 C   0  0  0  0  0  0  0  0  0  0  0  0
    0.0308    0.4125    0.0000 C   0  0  0  0  0  0  0  0  0  0  0  0
    0.7453    0.0000    0.0000 C   0  0  0  0  0  0  0  0  0  0  0  0
    0.7453   -0.8250    0.0000 N   0  0  0  0  0  0  0  0  0  0  0  0
    0.0308   -1.2375    0.0000 C   0  0  0  0  0  0  0  0  0  0  0  0
    1.4598   -1.2375    0.0000 C   0  0  0  0  0  0  0  0  0  0  0  0
    1.4598   -2.0625    0.0000 O   0  0  0  0  0  0  0  0  0  0  0  0
    2.1742   -0.8250    0.0000 C   0  0  0  0  0  0  0  0  0  0  0  0
    2.1742    0.0000    0.0000 C   0  0  0  0  0  0  0  0  0  0  0  0
    2.8887    0.4125    0.0000 C   0  0  0  0  0  0  0  0  0  0  0  0
    2.8887    1.2375    0.0000 O   0  0  0  0  0  0  0  0  0  0  0  0
    3.6032    0.0000    0.0000 C   0  0  0  0  0  0  0  0  0  0  0  0
    4.3177    0.4125    0.0000 C   0  0  0  0  0  0  0  0  0  0  0  0
    5.0321    0.0000    0.0000 C   0  0  0  0  0  0  0  0  0  0  0  0
    5.0321   -0.8250    0.0000 C   0  0  0  0  0  0  0  0  0  0  0  0
    4.3177   -1.2375    0.0000 C   0  0  0  0  0  0  0  0  0  0  0  0
    3.6032   -0.8250    0.0000 C   0  0  0  0  0  0  0  0  0  0  0  0
    2.8887   -1.2375    0.0000 C   0  0  0  0  0  0  0  0  0  0  0  0
  1  2  1  0  0  0  0
  2  3  1  0  0  0  0
  2  4  1  0  0  0  0
  2  5  1  0  0  0  0
  5  6  4  0  0  0  0
  5  7  4  0  0  0  0
  6 12  4  0  0  0  0
  7 11  4  0  0  0  0
  8  9  1  0  0  0  0
  8 11  1  0  0  0  0
  9 10  1  0  0  0  0
  9 15  1  0  0  0  0
  9 16  1  0  0  0  0
 10 19  1  0  0  0  0
 11 12  4  0  0  0  0
 12 13  1  0  0  0  0
 13 14  2  0  0  0  0
 13 15  1  0  0  0  0
 16 17  1  0  0  0  0
 17 18  1  0  0  0  0
 18 19  1  0  0  0  0
 18 20  1  0  0  0  0
 20 21  2  0  0  0  0
 20 22  1  0  0  0  0
 22 23  4  0  0  0  0
 22 32  4  0  0  0  0
 23 24  4  0  0  0  0
 24 25  1  0  0  0  0
 24 26  4  0  0  0  0
 26 27  4  0  0  0  0
 26 31  4  0  0  0  0
 27 28  4  0  0  0  0
 28 29  4  0  0  0  0
 29 30  4  0  0  0  0
 30 31  4  0  0  0  0
 31 32  4  0  0  0  0
M  END
> <From>
www.bindingDB.org

> <BindingDB Reactant_set_id>
1397255

> <Ligand InChI>
InChI=1S/C26H28N2O3S/c1-25(2,3)24-27-22-20(30)14-26(15-21(22)32-24)8-10-28(11-9-26)23(31)17-12-16-6-4-5-7-18(16)19(29)13-17/h4-7,12-13,29H,8-11,14-15H2,1-3H3

> <Ligand InChI Key>
JUVDVFGUYOVSDE-UHFFFAOYSA-N

> <BindingDB MonomerID>
663873

> <BindingDB Ligand Name>
US20240109915, Example 57

> <Target Name>
Activating signal cointegrator 1 complex subunit 1

> <Target Source Organism According to Curator or DataSource>


> <Ki (nM)>


> <IC50 (nM)>
 19.7

> <Kd (nM)>


> <EC50 (nM)>


> <kon (M-1-s-1)>


> <koff (s-1)>


> <pH>


> <Temp C>


> <Curation/DataSource>
US Patent

> <Article DOI>


> <BindingDB Entry DOI>
10.7270/Q2348QQ2

> <PMID>


> <PubChem AID>


> <Patent Number>
US20240109915

> <Authors>
Bagley, SW; Bootsma, AN; Choi, C; Dow, RL; Edmonds, DJ; Garcia-Irizarry, CN; Gerstenberger, BS; Ingle, G; O''Brien, JG; Parikh, MD; Rescourio, GC; Schmitt, DC

> <Institution>
Pfizer

> <Link to Ligand in BindingDB>
http://www.bindingdb.org/bind/chemsearch/marvin/MolStructure.jsp?monomerid=663873

> <Link to Ligand-Target Pair in BindingDB>
http://www.bindingdb.org/jsp/dbsearch/PrimarySearch_ki.jsp?energyterm=kJ/mole&tag=pol&polymerid=735&target=Activating+signal+cointegrator+1+complex+subunit+1&column=ki&startPg=0&Increment=50&submit=Search

> <Link to Ligand-Target Pair in BindingDB>
http://www.bindingdb.org/jsp/dbsearch/PrimarySearch_ki.jsp?energyterm=kJ/mole&tag=r21&monomerid=663873&enzyme=Activating+signal+cointegrator+1+complex+subunit+1&column=ki&startPg=0&Increment=50&submit=Search

> <Ligand HET ID in PDB>


> <PDB ID(s) for Ligand-Target Complex>


> <PubChem CID>


> <PubChem SID>


> <ChEBI ID of Ligand>


> <ChEMBL ID of Ligand>


> <DrugBank ID of Ligand>


> <IUPHAR_GRAC ID of Ligand>


> <KEGG ID of Ligand>


> <ZINC ID of Ligand>


> <Number of Protein Chains in Target (bigger than 1 implies a multichain complex)>
1

> <BindingDB Target Chain Sequence>
MEVLRPQLIRIDGRNYRKNPVQEQTYQHEEDEEDFYQGSMECADEPCDAYEVEQTPQGFRSTLRAPSLLYNLIHLNTSNDCGFQKITLDCQNIYTWKSRHIVGKRGDTRKKIEMETKTSISIPKPGQDGEIVITGQHRNGVISARTRIDVLLDTFRRKQPFTHFLAFFLNEVEVQEGFLRFQEEVLAKCSMDHGVDSSIFQNPKKLHLTIGMLVLLSEEEIQQTCEMLQQCKEEFINDISGGKPLEVEMAGIEYMNDDPGMVDVLYAKVHMKDGSNRLQELVDRVLERFQASGLIVKEWNSVKLHATVMNTLFRKDPNAEGRYNLYTAEGKYIFKERESFDGRNILKSFALLPRLEYNDAISAHCNLCLPGSSDSPASASQVAGITGVSDAYSQSLPGKS

> <PDB ID(s) of Target Chain>


> <UniProt (SwissProt) Recommended Name of Target Chain>
Activating signal cointegrator 1 complex subunit 1

> <UniProt (SwissProt) Entry Name of Target Chain>
ASCC1_HUMAN

> <UniProt (SwissProt) Primary ID of Target Chain>
Q8N9N2

> <UniProt (SwissProt) Secondary ID(s) of Target Chain>
Q5SW06 Q5SW07 Q96EI8 Q9Y307

> <UniProt (SwissProt) Alternative ID(s) of Target Chain>


> <UniProt (TrEMBL) Submitted Name of Target Chain>


> <UniProt (TrEMBL) Entry Name of Target Chain>


> <UniProt (TrEMBL) Primary ID of Target Chain>


> <UniProt (TrEMBL) Secondary ID(s) of Target Chain>


> <UniProt (TrEMBL) Alternative ID(s) of Target Chain>


$$$$
00286001.cdx
  Mrv0541 06272400352D          

 31 35  0  0  0  0            999 V2000
   -4.9524    0.4125    0.0000 C   0  0  0  0  0  0  0  0  0  0  0  0
   -4.1274    0.4125    0.0000 C   0  0  0  0  0  0  0  0  0  0  0  0
   -4.5399   -0.3020    0.0000 C   0  0  0  0  0  0  0  0  0  0  0  0
   -4.5399    1.1270    0.0000 C   0  0  0  0  0  0  0  0  0  0  0  0
   -3.3024    0.4125    0.0000 C   0  0  0  0  0  0  0  0  0  0  0  0
   -2.8175    1.0799    0.0000 N   0  0  0  0  0  0  0  0  0  0  0  0
   -2.8175   -0.2549    0.0000 S   0  0  0  0  0  0  0  0  0  0  0  0
   -1.3184   -0.4125    0.0000 C   0  0  0  0  0  0  0  0  0  0  0  0
   -0.6039    0.0000    0.0000 C   0  0  0  0  0  0  0  0  0  0  0  0
   -0.6039   -0.8250    0.0000 C   0  0  0  0  0  0  0  0  0  0  0  0
   -2.0329    0.0000    0.0000 C   0  0  0  0  0  0  0  0  0  0  0  0
   -2.0329    0.8250    0.0000 C   0  0  0  0  0  0  0  0  0  0  0  0
   -1.3184    1.2375    0.0000 C   0  0  0  0  0  0  0  0  0  0  0  0
   -1.3184    2.0625    0.0000 O   0  0  0  0  0  0  0  0  0  0  0  0
   -0.6039    0.8250    0.0000 C   0  0  0  0  0  0  0  0  0  0  0  0
    0.1105    0.4125    0.0000 C   0  0  0  0  0  0  0  0  0  0  0  0
    0.8250    0.0000    0.0000 C   0  0  0  0  0  0  0  0  0  0  0  0
    0.8250   -0.8250    0.0000 N   0  0  0  0  0  0  0  0  0  0  0  0
    0.1105   -1.2375    0.0000 C   0  0  0  0  0  0  0  0  0  0  0  0
    2.2539   -0.8250    0.0000 C   0  0  0  0  0  0  0  0  0  0  0  0
    1.5395   -1.2375    0.0000 C   0  0  0  0  0  0  0  0  0  0  0  0
    1.5395   -2.0625    0.0000 O   0  0  0  0  0  0  0  0  0  0  0  0
    2.2539    0.0000    0.0000 C   0  0  0  0  0  0  0  0  0  0  0  0
    2.9684    0.4125    0.0000 C   0  0  0  0  0  0  0  0  0  0  0  0
    3.6829    0.0000    0.0000 C   0  0  0  0  0  0  0  0  0  0  0  0
    4.4675    0.2549    0.0000 C   0  0  0  0  0  0  0  0  0  0  0  0
    4.7224    1.0396    0.0000 C   0  0  0  0  0  0  0  0  0  0  0  0
    4.9524   -0.4125    0.0000 C   0  0  0  0  0  0  0  0  0  0  0  0
    4.4675   -1.0799    0.0000 N   0  0  0  0  0  0  0  0  0  0  0  0
    3.6829   -0.8250    0.0000 C   0  0  0  0  0  0  0  0  0  0  0  0
    2.9684   -1.2375    0.0000 C   0  0  0  0  0  0  0  0  0  0  0  0
  1  2  1  0  0  0  0
  2  3  1  0  0  0  0
  2  4  1  0  0  0  0
  2  5  1  0  0  0  0
  5  6  4  0  0  0  0
  5  7  4  0  0  0  0
  6 12  4  0  0  0  0
  7 11  4  0  0  0  0
  8  9  1  0  0  0  0
  8 11  1  0  0  0  0
  9 10  1  0  0  0  0
  9 15  1  0  0  0  0
  9 16  1  0  0  0  0
 10 19  1  0  0  0  0
 11 12  4  0  0  0  0
 12 13  1  0  0  0  0
 13 14  2  0  0  0  0
 13 15  1  0  0  0  0
 16 17  1  0  0  0  0
 17 18  1  0  0  0  0
 18 19  1  0  0  0  0
 18 21  1  0  0  0  0
 20 21  1  0  0  0  0
 20 23  4  0  0  0  0
 20 31  4  0  0  0  0
 21 22  2  0  0  0  0
 23 24  4  0  0  0  0
 24 25  4  0  0  0  0
 25 26  4  0  0  0  0
 25 30  4  0  0  0  0
 26 27  1  0  0  0  0
 26 28  4  0  0  0  0
 28 29  4  0  0  0  0
 29 30  4  0  0  0  0
 30 31  4  0  0  0  0
M  STY  1   1 DAT
M  SAL   1  1  29
M  SDT   1 MRV_IMPLICIT_H                                        
M  SDD   1     0.0000    0.0000    DR    ALL  0       0  
M  SED   1 IMPL_H1
M  END
> <From>
www.bindingDB.org

> <BindingDB Reactant_set_id>
1397250

> <Ligand InChI>
InChI=1S/C25H29N3O2S/c1-15-14-26-18-11-16(5-6-17(15)18)22(30)28-9-7-25(8-10-28)12-19(29)21-20(13-25)31-23(27-21)24(2,3)4/h5-6,11,14,26H,7-10,12-13H2,1-4H3

> <Ligand InChI Key>
IHWIHMFDPJPECP-UHFFFAOYSA-N

> <BindingDB MonomerID>
663868

> <BindingDB Ligand Name>
US20240109915, Example 51

> <Target Name>
Activating signal cointegrator 1 complex subunit 1

> <Target Source Organism According to Curator or DataSource>


> <Ki (nM)>


> <IC50 (nM)>
 22.4

> <Kd (nM)>


> <EC50 (nM)>


> <kon (M-1-s-1)>


> <koff (s-1)>


> <pH>


> <Temp C>


> <Curation/DataSource>
US Patent

> <Article DOI>


> <BindingDB Entry DOI>
10.7270/Q2348QQ2

> <PMID>


> <PubChem AID>


> <Patent Number>
US20240109915

> <Authors>
Bagley, SW; Bootsma, AN; Choi, C; Dow, RL; Edmonds, DJ; Garcia-Irizarry, CN; Gerstenberger, BS; Ingle, G; O''Brien, JG; Parikh, MD; Rescourio, GC; Schmitt, DC

> <Institution>
Pfizer

> <Link to Ligand in BindingDB>
http://www.bindingdb.org/bind/chemsearch/marvin/MolStructure.jsp?monomerid=663868

> <Link to Ligand-Target Pair in BindingDB>
http://www.bindingdb.org/jsp/dbsearch/PrimarySearch_ki.jsp?energyterm=kJ/mole&tag=pol&polymerid=735&target=Activating+signal+cointegrator+1+complex+subunit+1&column=ki&startPg=0&Increment=50&submit=Search

> <Link to Ligand-Target Pair in BindingDB>
http://www.bindingdb.org/jsp/dbsearch/PrimarySearch_ki.jsp?energyterm=kJ/mole&tag=r21&monomerid=663868&enzyme=Activating+signal+cointegrator+1+complex+subunit+1&column=ki&startPg=0&Increment=50&submit=Search

> <Ligand HET ID in PDB>


> <PDB ID(s) for Ligand-Target Complex>


> <PubChem CID>


> <PubChem SID>


> <ChEBI ID of Ligand>


> <ChEMBL ID of Ligand>


> <DrugBank ID of Ligand>


> <IUPHAR_GRAC ID of Ligand>


> <KEGG ID of Ligand>


> <ZINC ID of Ligand>


> <Number of Protein Chains in Target (bigger than 1 implies a multichain complex)>
1

> <BindingDB Target Chain Sequence>
MEVLRPQLIRIDGRNYRKNPVQEQTYQHEEDEEDFYQGSMECADEPCDAYEVEQTPQGFRSTLRAPSLLYNLIHLNTSNDCGFQKITLDCQNIYTWKSRHIVGKRGDTRKKIEMETKTSISIPKPGQDGEIVITGQHRNGVISARTRIDVLLDTFRRKQPFTHFLAFFLNEVEVQEGFLRFQEEVLAKCSMDHGVDSSIFQNPKKLHLTIGMLVLLSEEEIQQTCEMLQQCKEEFINDISGGKPLEVEMAGIEYMNDDPGMVDVLYAKVHMKDGSNRLQELVDRVLERFQASGLIVKEWNSVKLHATVMNTLFRKDPNAEGRYNLYTAEGKYIFKERESFDGRNILKSFALLPRLEYNDAISAHCNLCLPGSSDSPASASQVAGITGVSDAYSQSLPGKS

> <PDB ID(s) of Target Chain>


> <UniProt (SwissProt) Recommended Name of Target Chain>
Activating signal cointegrator 1 complex subunit 1

> <UniProt (SwissProt) Entry Name of Target Chain>
ASCC1_HUMAN

> <UniProt (SwissProt) Primary ID of Target Chain>
Q8N9N2

> <UniProt (SwissProt) Secondary ID(s) of Target Chain>
Q5SW06 Q5SW07 Q96EI8 Q9Y307

> <UniProt (SwissProt) Alternative ID(s) of Target Chain>


> <UniProt (TrEMBL) Submitted Name of Target Chain>


> <UniProt (TrEMBL) Entry Name of Target Chain>


> <UniProt (TrEMBL) Primary ID of Target Chain>


> <UniProt (TrEMBL) Secondary ID(s) of Target Chain>


> <UniProt (TrEMBL) Alternative ID(s) of Target Chain>


$$$$
00308001.cdx
  Mrv0541 06272400352D          

 32 36  0  0  0  0            999 V2000
   -4.9524    0.4125    0.0000 C   0  0  0  0  0  0  0  0  0  0  0  0
   -4.1274    0.4125    0.0000 C   0  0  0  0  0  0  0  0  0  0  0  0
   -4.5399   -0.3020    0.0000 C   0  0  0  0  0  0  0  0  0  0  0  0
   -4.5399    1.1270    0.0000 C   0  0  0  0  0  0  0  0  0  0  0  0
   -3.3024    0.4125    0.0000 C   0  0  0  0  0  0  0  0  0  0  0  0
   -2.8175    1.0799    0.0000 N   0  0  0  0  0  0  0  0  0  0  0  0
   -2.8175   -0.2549    0.0000 S   0  0  0  0  0  0  0  0  0  0  0  0
   -1.3184   -0.4125    0.0000 C   0  0  0  0  0  0  0  0  0  0  0  0
   -0.6039    0.0000    0.0000 C   0  0  0  0  0  0  0  0  0  0  0  0
   -0.6039   -0.8250    0.0000 C   0  0  0  0  0  0  0  0  0  0  0  0
   -2.0329    0.0000    0.0000 C   0  0  0  0  0  0  0  0  0  0  0  0
   -2.0329    0.8250    0.0000 C   0  0  0  0  0  0  0  0  0  0  0  0
   -1.3184    1.2375    0.0000 C   0  0  0  0  0  0  0  0  0  0  0  0
   -1.3184    2.0625    0.0000 O   0  0  0  0  0  0  0  0  0  0  0  0
   -0.6039    0.8250    0.0000 C   0  0  0  0  0  0  0  0  0  0  0  0
    0.1105    0.4125    0.0000 C   0  0  0  0  0  0  0  0  0  0  0  0
    0.8250    0.0000    0.0000 C   0  0  0  0  0  0  0  0  0  0  0  0
    0.8250   -0.8250    0.0000 N   0  0  0  0  0  0  0  0  0  0  0  0
    0.1105   -1.2375    0.0000 C   0  0  0  0  0  0  0  0  0  0  0  0
    4.4675   -1.0799    0.0000 N   0  0  0  0  0  0  0  0  0  0  0  0
    4.9524   -0.4125    0.0000 N   0  0  0  0  0  0  0  0  0  0  0  0
    1.5395   -1.2375    0.0000 C   0  0  0  0  0  0  0  0  0  0  0  0
    1.5395   -2.0625    0.0000 O   0  0  0  0  0  0  0  0  0  0  0  0
    2.2539   -0.8250    0.0000 C   0  0  0  0  0  0  0  0  0  0  0  0
    2.2539    0.0000    0.0000 C   0  0  0  0  0  0  0  0  0  0  0  0
    2.9684    0.4125    0.0000 C   0  0  0  0  0  0  0  0  0  0  0  0
    2.9684    1.2375    0.0000 Cl  0  0  0  0  0  0  0  0  0  0  0  0
    3.6829    0.0000    0.0000 C   0  0  0  0  0  0  0  0  0  0  0  0
    4.4675    0.2549    0.0000 C   0  0  0  0  0  0  0  0  0  0  0  0
    3.6829   -0.8250    0.0000 C   0  0  0  0  0  0  0  0  0  0  0  0
    2.9684   -1.2375    0.0000 C   0  0  0  0  0  0  0  0  0  0  0  0
    4.7224   -1.8646    0.0000 C   0  0  0  0  0  0  0  0  0  0  0  0
  1  2  1  0  0  0  0
  2  3  1  0  0  0  0
  2  4  1  0  0  0  0
  2  5  1  0  0  0  0
  5  6  4  0  0  0  0
  5  7  4  0  0  0  0
  6 12  4  0  0  0  0
  7 11  4  0  0  0  0
  8  9  1  0  0  0  0
  8 11  1  0  0  0  0
  9 10  1  0  0  0  0
  9 15  1  0  0  0  0
  9 16  1  0  0  0  0
 10 19  1  0  0  0  0
 11 12  4  0  0  0  0
 12 13  1  0  0  0  0
 13 14  2  0  0  0  0
 13 15  1  0  0  0  0
 16 17  1  0  0  0  0
 17 18  1  0  0  0  0
 18 19  1  0  0  0  0
 18 22  1  0  0  0  0
 20 21  4  0  0  0  0
 20 30  4  0  0  0  0
 20 32  1  0  0  0  0
 21 29  4  0  0  0  0
 22 23  2  0  0  0  0
 22 24  1  0  0  0  0
 24 25  4  0  0  0  0
 24 31  4  0  0  0  0
 25 26  4  0  0  0  0
 26 27  1  0  0  0  0
 26 28  4  0  0  0  0
 28 29  4  0  0  0  0
 28 30  4  0  0  0  0
 30 31  4  0  0  0  0
M  END
> <From>
www.bindingDB.org

> <BindingDB Reactant_set_id>
1397270

> <Ligand InChI>
InChI=1S/C24H27ClN4O2S/c1-23(2,3)22-27-20-18(30)11-24(12-19(20)32-22)5-7-29(8-6-24)21(31)14-9-16(25)15-13-26-28(4)17(15)10-14/h9-10,13H,5-8,11-12H2,1-4H3

> <Ligand InChI Key>
PWDRLPVYNCILAR-UHFFFAOYSA-N

> <BindingDB MonomerID>
663888

> <BindingDB Ligand Name>
US20240109915, Example 73

> <Target Name>
Activating signal cointegrator 1 complex subunit 1

> <Target Source Organism According to Curator or DataSource>


> <Ki (nM)>


> <IC50 (nM)>
 22.9

> <Kd (nM)>


> <EC50 (nM)>


> <kon (M-1-s-1)>


> <koff (s-1)>


> <pH>


> <Temp C>


> <Curation/DataSource>
US Patent

> <Article DOI>


> <BindingDB Entry DOI>
10.7270/Q2348QQ2

> <PMID>


> <PubChem AID>


> <Patent Number>
US20240109915

> <Authors>
Bagley, SW; Bootsma, AN; Choi, C; Dow, RL; Edmonds, DJ; Garcia-Irizarry, CN; Gerstenberger, BS; Ingle, G; O''Brien, JG; Parikh, MD; Rescourio, GC; Schmitt, DC

> <Institution>
Pfizer

> <Link to Ligand in BindingDB>
http://www.bindingdb.org/bind/chemsearch/marvin/MolStructure.jsp?monomerid=663888

> <Link to Ligand-Target Pair in BindingDB>
http://www.bindingdb.org/jsp/dbsearch/PrimarySearch_ki.jsp?energyterm=kJ/mole&tag=pol&polymerid=735&target=Activating+signal+cointegrator+1+complex+subunit+1&column=ki&startPg=0&Increment=50&submit=Search

> <Link to Ligand-Target Pair in BindingDB>
http://www.bindingdb.org/jsp/dbsearch/PrimarySearch_ki.jsp?energyterm=kJ/mole&tag=r21&monomerid=663888&enzyme=Activating+signal+cointegrator+1+complex+subunit+1&column=ki&startPg=0&Increment=50&submit=Search

> <Ligand HET ID in PDB>


> <PDB ID(s) for Ligand-Target Complex>


> <PubChem CID>


> <PubChem SID>


> <ChEBI ID of Ligand>


> <ChEMBL ID of Ligand>


> <DrugBank ID of Ligand>


> <IUPHAR_GRAC ID of Ligand>


> <KEGG ID of Ligand>


> <ZINC ID of Ligand>


> <Number of Protein Chains in Target (bigger than 1 implies a multichain complex)>
1

> <BindingDB Target Chain Sequence>
MEVLRPQLIRIDGRNYRKNPVQEQTYQHEEDEEDFYQGSMECADEPCDAYEVEQTPQGFRSTLRAPSLLYNLIHLNTSNDCGFQKITLDCQNIYTWKSRHIVGKRGDTRKKIEMETKTSISIPKPGQDGEIVITGQHRNGVISARTRIDVLLDTFRRKQPFTHFLAFFLNEVEVQEGFLRFQEEVLAKCSMDHGVDSSIFQNPKKLHLTIGMLVLLSEEEIQQTCEMLQQCKEEFINDISGGKPLEVEMAGIEYMNDDPGMVDVLYAKVHMKDGSNRLQELVDRVLERFQASGLIVKEWNSVKLHATVMNTLFRKDPNAEGRYNLYTAEGKYIFKERESFDGRNILKSFALLPRLEYNDAISAHCNLCLPGSSDSPASASQVAGITGVSDAYSQSLPGKS

> <PDB ID(s) of Target Chain>


> <UniProt (SwissProt) Recommended Name of Target Chain>
Activating signal cointegrator 1 complex subunit 1

> <UniProt (SwissProt) Entry Name of Target Chain>
ASCC1_HUMAN

> <UniProt (SwissProt) Primary ID of Target Chain>
Q8N9N2

> <UniProt (SwissProt) Secondary ID(s) of Target Chain>
Q5SW06 Q5SW07 Q96EI8 Q9Y307

> <UniProt (SwissProt) Alternative ID(s) of Target Chain>


> <UniProt (TrEMBL) Submitted Name of Target Chain>


> <UniProt (TrEMBL) Entry Name of Target Chain>


> <UniProt (TrEMBL) Primary ID of Target Chain>


> <UniProt (TrEMBL) Secondary ID(s) of Target Chain>


> <UniProt (TrEMBL) Alternative ID(s) of Target Chain>


$$$$
00271001.cdx
  Mrv0541 06272400352D          

 33 37  0  0  0  0            999 V2000
   -3.3821    0.4125    0.0000 C   0  0  0  0  0  0  0  0  0  0  0  0
   -2.8972    1.0799    0.0000 N   0  0  0  0  0  0  0  0  0  0  0  0
   -4.2071    0.4125    0.0000 C   0  0  0  0  0  0  0  0  0  0  0  0
   -2.8972   -0.2549    0.0000 S   0  0  0  0  0  0  0  0  0  0  0  0
   -4.6196   -0.3020    0.0000 C   0  0  0  0  0  0  0  0  0  0  0  0
   -4.6196    1.1270    0.0000 C   0  0  0  0  0  0  0  0  0  0  0  0
   -5.0321    0.4125    0.0000 C   0  0  0  0  0  0  0  0  0  0  0  0
   -1.3981   -0.4125    0.0000 C   0  0  0  0  0  0  0  0  0  0  0  0
   -2.1126    0.0000    0.0000 C   0  0  0  0  0  0  0  0  0  0  0  0
   -2.1126    0.8250    0.0000 C   0  0  0  0  0  0  0  0  0  0  0  0
   -0.6836    0.0000    0.0000 C   0  0  0  0  0  0  0  0  0  0  0  0
   -1.3981    1.2375    0.0000 C   0  0  0  0  0  0  0  0  0  0  0  0
   -1.3981    2.0625    0.0000 O   0  0  0  0  0  0  0  0  0  0  0  0
   -0.6836    0.8250    0.0000 C   0  0  0  0  0  0  0  0  0  0  0  0
    0.0308    0.4125    0.0000 C   0  0  0  0  0  0  0  0  0  0  0  0
    0.7453    0.0000    0.0000 C   0  0  0  0  0  0  0  0  0  0  0  0
    0.7453   -0.8250    0.0000 N   0  0  0  0  0  0  0  0  0  0  0  0
   -0.6836   -0.8250    0.0000 C   0  0  0  0  0  0  0  0  0  0  0  0
    0.0308   -1.2375    0.0000 C   0  0  0  0  0  0  0  0  0  0  0  0
    3.6032    0.0000    0.0000 C   0  0  0  0  0  0  0  0  0  0  0  0
    2.8887    0.4125    0.0000 C   0  0  0  0  0  0  0  0  0  0  0  0
    2.1742    0.0000    0.0000 C   0  0  0  0  0  0  0  0  0  0  0  0
    2.7172    1.2195    0.0000 C   0  0  0  0  0  0  0  0  0  0  0  0
    1.8967    1.3057    0.0000 N   0  0  0  0  0  0  0  0  0  0  0  0
    4.3177    0.4125    0.0000 O   0  0  0  0  0  0  0  0  0  0  0  0
    3.6032   -0.8250    0.0000 C   0  0  0  0  0  0  0  0  0  0  0  0
    4.3177   -1.2375    0.0000 C   0  0  0  0  0  0  0  0  0  0  0  0
    2.8887   -1.2375    0.0000 C   0  0  0  0  0  0  0  0  0  0  0  0
    2.1742   -0.8250    0.0000 C   0  0  0  0  0  0  0  0  0  0  0  0
    1.4598   -1.2375    0.0000 C   0  0  0  0  0  0  0  0  0  0  0  0
    1.4598   -2.0625    0.0000 O   0  0  0  0  0  0  0  0  0  0  0  0
    1.5611    0.5520    0.0000 N   0  0  0  0  0  0  0  0  0  0  0  0
    5.0321    0.0000    0.0000 C   0  0  0  0  0  0  0  0  0  0  0  0
  1  2  4  0  0  0  0
  1  3  1  0  0  0  0
  1  4  4  0  0  0  0
  2 10  4  0  0  0  0
  3  5  1  0  0  0  0
  3  6  1  0  0  0  0
  3  7  1  0  0  0  0
  4  9  4  0  0  0  0
  8  9  1  0  0  0  0
  8 11  1  0  0  0  0
  9 10  4  0  0  0  0
 10 12  1  0  0  0  0
 11 14  1  0  0  0  0
 11 15  1  0  0  0  0
 11 18  1  0  0  0  0
 12 13  2  0  0  0  0
 12 14  1  0  0  0  0
 15 16  1  0  0  0  0
 16 17  1  0  0  0  0
 17 19  1  0  0  0  0
 17 30  1  0  0  0  0
 18 19  1  0  0  0  0
 20 21  4  0  0  0  0
 20 25  1  0  0  0  0
 20 26  4  0  0  0  0
 21 22  4  0  0  0  0
 21 23  4  0  0  0  0
 22 29  4  0  0  0  0
 22 32  4  0  0  0  0
 23 24  4  0  0  0  0
 24 32  4  0  0  0  0
 26 27  1  0  0  0  0
 26 28  4  0  0  0  0
 28 29  4  0  0  0  0
 29 30  1  0  0  0  0
 30 31  2  0  0  0  0
 25 33  1  0  0  0  0
M  STY  1   1 DAT
M  SAL   1  1  32
M  SDT   1 MRV_IMPLICIT_H                                        
M  SDD   1     0.0000    0.0000    DR    ALL  0       0  
M  SED   1 IMPL_H1
M  END
> <From>
www.bindingDB.org

> <BindingDB Reactant_set_id>
1397236

> <Ligand InChI>
InChI=1S/C25H30N4O3S/c1-14-10-15(19-16(13-26-28-19)21(14)32-5)22(31)29-8-6-25(7-9-29)11-17(30)20-18(12-25)33-23(27-20)24(2,3)4/h10,13H,6-9,11-12H2,1-5H3,(H,26,28)

> <Ligand InChI Key>
VKQDYDNKCWXRRA-UHFFFAOYSA-N

> <BindingDB MonomerID>
663854

> <BindingDB Ligand Name>
US20240109915, Example 36

> <Target Name>
Activating signal cointegrator 1 complex subunit 1

> <Target Source Organism According to Curator or DataSource>


> <Ki (nM)>


> <IC50 (nM)>
 23.2

> <Kd (nM)>


> <EC50 (nM)>


> <kon (M-1-s-1)>


> <koff (s-1)>


> <pH>


> <Temp C>


> <Curation/DataSource>
US Patent

> <Article DOI>


> <BindingDB Entry DOI>
10.7270/Q2348QQ2

> <PMID>


> <PubChem AID>


> <Patent Number>
US20240109915

> <Authors>
Bagley, SW; Bootsma, AN; Choi, C; Dow, RL; Edmonds, DJ; Garcia-Irizarry, CN; Gerstenberger, BS; Ingle, G; O''Brien, JG; Parikh, MD; Rescourio, GC; Schmitt, DC

> <Institution>
Pfizer

> <Link to Ligand in BindingDB>
http://www.bindingdb.org/bind/chemsearch/marvin/MolStructure.jsp?monomerid=663854

> <Link to Ligand-Target Pair in BindingDB>
http://www.bindingdb.org/jsp/dbsearch/PrimarySearch_ki.jsp?energyterm=kJ/mole&tag=pol&polymerid=735&target=Activating+signal+cointegrator+1+complex+subunit+1&column=ki&startPg=0&Increment=50&submit=Search

> <Link to Ligand-Target Pair in BindingDB>
http://www.bindingdb.org/jsp/dbsearch/PrimarySearch_ki.jsp?energyterm=kJ/mole&tag=r21&monomerid=663854&enzyme=Activating+signal+cointegrator+1+complex+subunit+1&column=ki&startPg=0&Increment=50&submit=Search

> <Ligand HET ID in PDB>


> <PDB ID(s) for Ligand-Target Complex>


> <PubChem CID>


> <PubChem SID>


> <ChEBI ID of Ligand>


> <ChEMBL ID of Ligand>


> <DrugBank ID of Ligand>


> <IUPHAR_GRAC ID of Ligand>


> <KEGG ID of Ligand>


> <ZINC ID of Ligand>


> <Number of Protein Chains in Target (bigger than 1 implies a multichain complex)>
1

> <BindingDB Target Chain Sequence>
MEVLRPQLIRIDGRNYRKNPVQEQTYQHEEDEEDFYQGSMECADEPCDAYEVEQTPQGFRSTLRAPSLLYNLIHLNTSNDCGFQKITLDCQNIYTWKSRHIVGKRGDTRKKIEMETKTSISIPKPGQDGEIVITGQHRNGVISARTRIDVLLDTFRRKQPFTHFLAFFLNEVEVQEGFLRFQEEVLAKCSMDHGVDSSIFQNPKKLHLTIGMLVLLSEEEIQQTCEMLQQCKEEFINDISGGKPLEVEMAGIEYMNDDPGMVDVLYAKVHMKDGSNRLQELVDRVLERFQASGLIVKEWNSVKLHATVMNTLFRKDPNAEGRYNLYTAEGKYIFKERESFDGRNILKSFALLPRLEYNDAISAHCNLCLPGSSDSPASASQVAGITGVSDAYSQSLPGKS

> <PDB ID(s) of Target Chain>


> <UniProt (SwissProt) Recommended Name of Target Chain>
Activating signal cointegrator 1 complex subunit 1

> <UniProt (SwissProt) Entry Name of Target Chain>
ASCC1_HUMAN

> <UniProt (SwissProt) Primary ID of Target Chain>
Q8N9N2

> <UniProt (SwissProt) Secondary ID(s) of Target Chain>
Q5SW06 Q5SW07 Q96EI8 Q9Y307

> <UniProt (SwissProt) Alternative ID(s) of Target Chain>


> <UniProt (TrEMBL) Submitted Name of Target Chain>


> <UniProt (TrEMBL) Entry Name of Target Chain>


> <UniProt (TrEMBL) Primary ID of Target Chain>


> <UniProt (TrEMBL) Secondary ID(s) of Target Chain>


> <UniProt (TrEMBL) Alternative ID(s) of Target Chain>


$$$$
00344001.cdx
  Mrv0541 06272400352D          

 35 39  0  0  0  0            999 V2000
   -3.3024    0.4125    0.0000 C   0  0  0  0  0  0  0  0  0  0  0  0
   -2.8175    1.0799    0.0000 N   0  0  0  0  0  0  0  0  0  0  0  0
   -4.1274    0.4125    0.0000 C   0  0  0  0  0  0  0  0  0  0  0  0
   -2.8175   -0.2549    0.0000 S   0  0  0  0  0  0  0  0  0  0  0  0
   -4.9524    0.4125    0.0000 C   0  0  0  0  0  0  0  0  0  0  0  0
   -4.5399    1.1270    0.0000 C   0  0  0  0  0  0  0  0  0  0  0  0
   -4.5399   -0.3020    0.0000 C   0  0  0  0  0  0  0  0  0  0  0  0
   -2.0329    0.0000    0.0000 C   0  0  0  0  0  0  0  0  0  0  0  0
   -2.0329    0.8250    0.0000 C   0  0  0  0  0  0  0  0  0  0  0  0
   -1.3184   -0.4125    0.0000 C   0  0  0  0  0  0  0  0  0  0  0  0
   -1.3184    1.2375    0.0000 C   0  0  0  0  0  0  0  0  0  0  0  0
   -1.3184    2.0625    0.0000 O   0  0  0  0  0  0  0  0  0  0  0  0
   -0.6039    0.8250    0.0000 C   0  0  0  0  0  0  0  0  0  0  0  0
   -0.6039    0.0000    0.0000 C   0  0  0  0  0  0  0  0  0  0  0  0
    0.1105    0.4125    0.0000 C   0  0  0  0  0  0  0  0  0  0  0  0
    0.8250    0.0000    0.0000 C   0  0  0  0  0  0  0  0  0  0  0  0
    0.8250   -0.8250    0.0000 N   0  0  0  0  0  0  0  0  0  0  0  0
   -0.6039   -0.8250    0.0000 C   0  0  0  0  0  0  0  0  0  0  0  0
    0.1105   -1.2375    0.0000 C   0  0  0  0  0  0  0  0  0  0  0  0
    4.4675    0.2549    0.0000 N   0  0  0  0  0  0  0  0  0  0  0  0
    2.2539   -0.8250    0.0000 C   0  0  0  0  0  0  0  0  0  0  0  0
    2.2539    0.0000    0.0000 C   0  0  0  0  0  0  0  0  0  0  0  0
    2.9684   -1.2375    0.0000 C   0  0  0  0  0  0  0  0  0  0  0  0
    1.5395   -1.2375    0.0000 C   0  0  0  0  0  0  0  0  0  0  0  0
    1.5395   -2.0625    0.0000 O   0  0  0  0  0  0  0  0  0  0  0  0
    2.9684    0.4125    0.0000 C   0  0  0  0  0  0  0  0  0  0  0  0
    2.9684    1.2375    0.0000 O   0  0  0  0  0  0  0  0  0  0  0  0
    3.6829    0.0000    0.0000 C   0  0  0  0  0  0  0  0  0  0  0  0
    3.6829   -0.8250    0.0000 C   0  0  0  0  0  0  0  0  0  0  0  0
    4.4675   -1.0799    0.0000 C   0  0  0  0  0  0  0  0  0  0  0  0
    4.7224   -1.8646    0.0000 C   0  0  0  0  0  0  0  0  0  0  0  0
    4.9524   -0.4125    0.0000 N   0  0  0  0  0  0  0  0  0  0  0  0
    4.7224    1.0396    0.0000 C   0  0  0  0  0  0  0  0  0  0  0  0
    2.2539    1.6500    0.0000 C   0  0  0  0  0  0  0  0  0  0  0  0
    1.5395    1.2375    0.0000 C   0  0  0  0  0  0  0  0  0  0  0  0
  1  2  4  0  0  0  0
  1  3  1  0  0  0  0
  1  4  4  0  0  0  0
  2  9  4  0  0  0  0
  3  5  1  0  0  0  0
  3  6  1  0  0  0  0
  3  7  1  0  0  0  0
  4  8  4  0  0  0  0
  8  9  4  0  0  0  0
  8 10  1  0  0  0  0
  9 11  1  0  0  0  0
 10 14  1  0  0  0  0
 11 12  1  0  0  0  0
 11 13  1  0  0  0  0
 13 14  1  0  0  0  0
 14 15  1  0  0  0  0
 14 18  1  0  0  0  0
 15 16  1  0  0  0  0
 16 17  1  0  0  0  0
 17 19  1  0  0  0  0
 17 24  1  0  0  0  0
 18 19  1  0  0  0  0
 20 32  4  0  0  0  0
 20 28  4  0  0  0  0
 20 33  1  0  0  0  0
 21 22  4  0  0  0  0
 21 23  4  0  0  0  0
 21 24  1  0  0  0  0
 22 26  4  0  0  0  0
 23 29  4  0  0  0  0
 24 25  2  0  0  0  0
 26 27  1  0  0  0  0
 26 28  4  0  0  0  0
 28 29  4  0  0  0  0
 29 30  4  0  0  0  0
 30 31  1  0  0  0  0
 30 32  4  0  0  0  0
 27 34  1  0  0  0  0
 34 35  1  0  0  0  0
M  END
> <From>
www.bindingDB.org

> <BindingDB Reactant_set_id>
1397306

> <Ligand InChI>
InChI=1S/C27H36N4O3S/c1-7-34-20-13-17(12-18-16(2)29-30(6)23(18)20)24(33)31-10-8-27(9-11-31)14-19(32)22-21(15-27)35-25(28-22)26(3,4)5/h12-13,19,32H,7-11,14-15H2,1-6H3

> <Ligand InChI Key>
FSFWYCVRSWJZDF-UHFFFAOYSA-N

> <BindingDB MonomerID>
663924

> <BindingDB Ligand Name>
US20240109915, Example 109

> <Target Name>
Activating signal cointegrator 1 complex subunit 1

> <Target Source Organism According to Curator or DataSource>


> <Ki (nM)>


> <IC50 (nM)>
 23.2

> <Kd (nM)>


> <EC50 (nM)>


> <kon (M-1-s-1)>


> <koff (s-1)>


> <pH>


> <Temp C>


> <Curation/DataSource>
US Patent

> <Article DOI>


> <BindingDB Entry DOI>
10.7270/Q2348QQ2

> <PMID>


> <PubChem AID>


> <Patent Number>
US20240109915

> <Authors>
Bagley, SW; Bootsma, AN; Choi, C; Dow, RL; Edmonds, DJ; Garcia-Irizarry, CN; Gerstenberger, BS; Ingle, G; O''Brien, JG; Parikh, MD; Rescourio, GC; Schmitt, DC

> <Institution>
Pfizer

> <Link to Ligand in BindingDB>
http://www.bindingdb.org/bind/chemsearch/marvin/MolStructure.jsp?monomerid=663924

> <Link to Ligand-Target Pair in BindingDB>
http://www.bindingdb.org/jsp/dbsearch/PrimarySearch_ki.jsp?energyterm=kJ/mole&tag=pol&polymerid=735&target=Activating+signal+cointegrator+1+complex+subunit+1&column=ki&startPg=0&Increment=50&submit=Search

> <Link to Ligand-Target Pair in BindingDB>
http://www.bindingdb.org/jsp/dbsearch/PrimarySearch_ki.jsp?energyterm=kJ/mole&tag=r21&monomerid=663924&enzyme=Activating+signal+cointegrator+1+complex+subunit+1&column=ki&startPg=0&Increment=50&submit=Search

> <Ligand HET ID in PDB>


> <PDB ID(s) for Ligand-Target Complex>


> <PubChem CID>


> <PubChem SID>


> <ChEBI ID of Ligand>


> <ChEMBL ID of Ligand>


> <DrugBank ID of Ligand>


> <IUPHAR_GRAC ID of Ligand>


> <KEGG ID of Ligand>


> <ZINC ID of Ligand>


> <Number of Protein Chains in Target (bigger than 1 implies a multichain complex)>
1

> <BindingDB Target Chain Sequence>
MEVLRPQLIRIDGRNYRKNPVQEQTYQHEEDEEDFYQGSMECADEPCDAYEVEQTPQGFRSTLRAPSLLYNLIHLNTSNDCGFQKITLDCQNIYTWKSRHIVGKRGDTRKKIEMETKTSISIPKPGQDGEIVITGQHRNGVISARTRIDVLLDTFRRKQPFTHFLAFFLNEVEVQEGFLRFQEEVLAKCSMDHGVDSSIFQNPKKLHLTIGMLVLLSEEEIQQTCEMLQQCKEEFINDISGGKPLEVEMAGIEYMNDDPGMVDVLYAKVHMKDGSNRLQELVDRVLERFQASGLIVKEWNSVKLHATVMNTLFRKDPNAEGRYNLYTAEGKYIFKERESFDGRNILKSFALLPRLEYNDAISAHCNLCLPGSSDSPASASQVAGITGVSDAYSQSLPGKS

> <PDB ID(s) of Target Chain>


> <UniProt (SwissProt) Recommended Name of Target Chain>
Activating signal cointegrator 1 complex subunit 1

> <UniProt (SwissProt) Entry Name of Target Chain>
ASCC1_HUMAN

> <UniProt (SwissProt) Primary ID of Target Chain>
Q8N9N2

> <UniProt (SwissProt) Secondary ID(s) of Target Chain>
Q5SW06 Q5SW07 Q96EI8 Q9Y307

> <UniProt (SwissProt) Alternative ID(s) of Target Chain>


> <UniProt (TrEMBL) Submitted Name of Target Chain>


> <UniProt (TrEMBL) Entry Name of Target Chain>


> <UniProt (TrEMBL) Primary ID of Target Chain>


> <UniProt (TrEMBL) Secondary ID(s) of Target Chain>


> <UniProt (TrEMBL) Alternative ID(s) of Target Chain>


$$$$
00282001.cdx
  Mrv0541 06272400352D          

 31 35  0  0  0  0            999 V2000
   -4.9524    0.4125    0.0000 C   0  0  0  0  0  0  0  0  0  0  0  0
   -4.1274    0.4125    0.0000 C   0  0  0  0  0  0  0  0  0  0  0  0
   -4.5399   -0.3020    0.0000 C   0  0  0  0  0  0  0  0  0  0  0  0
   -4.5399    1.1270    0.0000 C   0  0  0  0  0  0  0  0  0  0  0  0
   -3.3024    0.4125    0.0000 C   0  0  0  0  0  0  0  0  0  0  0  0
   -2.8175    1.0799    0.0000 N   0  0  0  0  0  0  0  0  0  0  0  0
   -2.8175   -0.2549    0.0000 S   0  0  0  0  0  0  0  0  0  0  0  0
   -1.3184   -0.4125    0.0000 C   0  0  0  0  0  0  0  0  0  0  0  0
   -0.6039    0.0000    0.0000 C   0  0  0  0  0  0  0  0  0  0  0  0
   -0.6039   -0.8250    0.0000 C   0  0  0  0  0  0  0  0  0  0  0  0
   -2.0329    0.0000    0.0000 C   0  0  0  0  0  0  0  0  0  0  0  0
   -2.0329    0.8250    0.0000 C   0  0  0  0  0  0  0  0  0  0  0  0
   -1.3184    1.2375    0.0000 C   0  0  0  0  0  0  0  0  0  0  0  0
   -1.3184    2.0625    0.0000 O   0  0  0  0  0  0  0  0  0  0  0  0
   -0.6039    0.8250    0.0000 C   0  0  0  0  0  0  0  0  0  0  0  0
    0.1105    0.4125    0.0000 C   0  0  0  0  0  0  0  0  0  0  0  0
    0.8250    0.0000    0.0000 C   0  0  0  0  0  0  0  0  0  0  0  0
    0.8250   -0.8250    0.0000 N   0  0  0  0  0  0  0  0  0  0  0  0
    0.1105   -1.2375    0.0000 C   0  0  0  0  0  0  0  0  0  0  0  0
    4.9524   -0.4125    0.0000 N   0  0  0  0  0  0  0  0  0  0  0  0
    4.4675    0.2549    0.0000 N   0  0  0  0  0  0  0  0  0  0  0  0
    1.5395   -1.2375    0.0000 C   0  0  0  0  0  0  0  0  0  0  0  0
    1.5395   -2.0625    0.0000 O   0  0  0  0  0  0  0  0  0  0  0  0
    2.2539   -0.8250    0.0000 C   0  0  0  0  0  0  0  0  0  0  0  0
    2.2539    0.0000    0.0000 C   0  0  0  0  0  0  0  0  0  0  0  0
    2.9684    0.4125    0.0000 C   0  0  0  0  0  0  0  0  0  0  0  0
    2.9684    1.2375    0.0000 Cl  0  0  0  0  0  0  0  0  0  0  0  0
    3.6829    0.0000    0.0000 C   0  0  0  0  0  0  0  0  0  0  0  0
    3.6829   -0.8250    0.0000 C   0  0  0  0  0  0  0  0  0  0  0  0
    4.4675   -1.0799    0.0000 C   0  0  0  0  0  0  0  0  0  0  0  0
    2.9684   -1.2375    0.0000 C   0  0  0  0  0  0  0  0  0  0  0  0
  1  2  1  0  0  0  0
  2  3  1  0  0  0  0
  2  4  1  0  0  0  0
  2  5  1  0  0  0  0
  5  6  4  0  0  0  0
  5  7  4  0  0  0  0
  6 12  4  0  0  0  0
  7 11  4  0  0  0  0
  8  9  1  0  0  0  0
  8 11  1  0  0  0  0
  9 10  1  0  0  0  0
  9 15  1  0  0  0  0
  9 16  1  0  0  0  0
 10 19  1  0  0  0  0
 11 12  4  0  0  0  0
 12 13  1  0  0  0  0
 13 14  2  0  0  0  0
 13 15  1  0  0  0  0
 16 17  1  0  0  0  0
 17 18  1  0  0  0  0
 18 19  1  0  0  0  0
 18 22  1  0  0  0  0
 20 21  4  0  0  0  0
 20 30  4  0  0  0  0
 21 28  4  0  0  0  0
 22 23  2  0  0  0  0
 22 24  1  0  0  0  0
 24 25  4  0  0  0  0
 24 31  4  0  0  0  0
 25 26  4  0  0  0  0
 26 27  1  0  0  0  0
 26 28  4  0  0  0  0
 28 29  4  0  0  0  0
 29 30  4  0  0  0  0
 29 31  4  0  0  0  0
M  STY  1   1 DAT
M  SAL   1  1  21
M  SDT   1 MRV_IMPLICIT_H                                        
M  SDD   1     0.0000    0.0000    DR    ALL  0       0  
M  SED   1 IMPL_H1
M  END
> <From>
www.bindingDB.org

> <BindingDB Reactant_set_id>
1397246

> <Ligand InChI>
InChI=1S/C23H25ClN4O2S/c1-22(2,3)21-26-19-16(29)10-23(11-17(19)31-21)4-6-28(7-5-23)20(30)13-8-14-12-25-27-18(14)15(24)9-13/h8-9,12H,4-7,10-11H2,1-3H3,(H,25,27)

> <Ligand InChI Key>
JWHDTKAEKGLUHJ-UHFFFAOYSA-N

> <BindingDB MonomerID>
663864

> <BindingDB Ligand Name>
US20240109915, Example 47

> <Target Name>
Activating signal cointegrator 1 complex subunit 1

> <Target Source Organism According to Curator or DataSource>


> <Ki (nM)>


> <IC50 (nM)>
 23.3

> <Kd (nM)>


> <EC50 (nM)>


> <kon (M-1-s-1)>


> <koff (s-1)>


> <pH>


> <Temp C>


> <Curation/DataSource>
US Patent

> <Article DOI>


> <BindingDB Entry DOI>
10.7270/Q2348QQ2

> <PMID>


> <PubChem AID>


> <Patent Number>
US20240109915

> <Authors>
Bagley, SW; Bootsma, AN; Choi, C; Dow, RL; Edmonds, DJ; Garcia-Irizarry, CN; Gerstenberger, BS; Ingle, G; O''Brien, JG; Parikh, MD; Rescourio, GC; Schmitt, DC

> <Institution>
Pfizer

> <Link to Ligand in BindingDB>
http://www.bindingdb.org/bind/chemsearch/marvin/MolStructure.jsp?monomerid=663864

> <Link to Ligand-Target Pair in BindingDB>
http://www.bindingdb.org/jsp/dbsearch/PrimarySearch_ki.jsp?energyterm=kJ/mole&tag=pol&polymerid=735&target=Activating+signal+cointegrator+1+complex+subunit+1&column=ki&startPg=0&Increment=50&submit=Search

> <Link to Ligand-Target Pair in BindingDB>
http://www.bindingdb.org/jsp/dbsearch/PrimarySearch_ki.jsp?energyterm=kJ/mole&tag=r21&monomerid=663864&enzyme=Activating+signal+cointegrator+1+complex+subunit+1&column=ki&startPg=0&Increment=50&submit=Search

> <Ligand HET ID in PDB>


> <PDB ID(s) for Ligand-Target Complex>


> <PubChem CID>


> <PubChem SID>


> <ChEBI ID of Ligand>


> <ChEMBL ID of Ligand>


> <DrugBank ID of Ligand>


> <IUPHAR_GRAC ID of Ligand>


> <KEGG ID of Ligand>


> <ZINC ID of Ligand>


> <Number of Protein Chains in Target (bigger than 1 implies a multichain complex)>
1

> <BindingDB Target Chain Sequence>
MEVLRPQLIRIDGRNYRKNPVQEQTYQHEEDEEDFYQGSMECADEPCDAYEVEQTPQGFRSTLRAPSLLYNLIHLNTSNDCGFQKITLDCQNIYTWKSRHIVGKRGDTRKKIEMETKTSISIPKPGQDGEIVITGQHRNGVISARTRIDVLLDTFRRKQPFTHFLAFFLNEVEVQEGFLRFQEEVLAKCSMDHGVDSSIFQNPKKLHLTIGMLVLLSEEEIQQTCEMLQQCKEEFINDISGGKPLEVEMAGIEYMNDDPGMVDVLYAKVHMKDGSNRLQELVDRVLERFQASGLIVKEWNSVKLHATVMNTLFRKDPNAEGRYNLYTAEGKYIFKERESFDGRNILKSFALLPRLEYNDAISAHCNLCLPGSSDSPASASQVAGITGVSDAYSQSLPGKS

> <PDB ID(s) of Target Chain>


> <UniProt (SwissProt) Recommended Name of Target Chain>
Activating signal cointegrator 1 complex subunit 1

> <UniProt (SwissProt) Entry Name of Target Chain>
ASCC1_HUMAN

> <UniProt (SwissProt) Primary ID of Target Chain>
Q8N9N2

> <UniProt (SwissProt) Secondary ID(s) of Target Chain>
Q5SW06 Q5SW07 Q96EI8 Q9Y307

> <UniProt (SwissProt) Alternative ID(s) of Target Chain>


> <UniProt (TrEMBL) Submitted Name of Target Chain>


> <UniProt (TrEMBL) Entry Name of Target Chain>


> <UniProt (TrEMBL) Primary ID of Target Chain>


> <UniProt (TrEMBL) Secondary ID(s) of Target Chain>


> <UniProt (TrEMBL) Alternative ID(s) of Target Chain>


$$$$
00331001.cdx
  Mrv0541 06272400352D          

 33 37  0  0  0  0            999 V2000
   -5.0321    0.4125    0.0000 C   0  0  0  0  0  0  0  0  0  0  0  0
   -4.2071    0.4125    0.0000 C   0  0  0  0  0  0  0  0  0  0  0  0
   -4.6196    1.1270    0.0000 C   0  0  0  0  0  0  0  0  0  0  0  0
   -4.6196   -0.3020    0.0000 C   0  0  0  0  0  0  0  0  0  0  0  0
   -3.3821    0.4125    0.0000 C   0  0  0  0  0  0  0  0  0  0  0  0
   -2.8972    1.0799    0.0000 N   0  0  0  0  0  0  0  0  0  0  0  0
   -2.8972   -0.2549    0.0000 S   0  0  0  0  0  0  0  0  0  0  0  0
   -1.3981   -0.4125    0.0000 C   0  0  0  0  0  0  0  0  0  0  0  0
   -0.6836    0.0000    0.0000 C   0  0  0  0  0  0  0  0  0  0  0  0
   -0.6836   -0.8250    0.0000 C   0  0  0  0  0  0  0  0  0  0  0  0
   -2.1126    0.0000    0.0000 C   0  0  0  0  0  0  0  0  0  0  0  0
   -2.1126    0.8250    0.0000 C   0  0  0  0  0  0  0  0  0  0  0  0
   -1.3981    1.2375    0.0000 C   0  0  0  0  0  0  0  0  0  0  0  0
   -1.3981    2.0625    0.0000 O   0  0  0  0  0  0  0  0  0  0  0  0
   -0.6836    0.8250    0.0000 C   0  0  0  0  0  0  0  0  0  0  0  0
    0.0308    0.4125    0.0000 C   0  0  0  0  0  0  0  0  0  0  0  0
    0.7453    0.0000    0.0000 C   0  0  0  0  0  0  0  0  0  0  0  0
    0.7453   -0.8250    0.0000 N   0  0  0  0  0  0  0  0  0  0  0  0
    0.0308   -1.2375    0.0000 C   0  0  0  0  0  0  0  0  0  0  0  0
    3.6032   -0.8250    0.0000 C   0  0  0  0  0  0  0  0  0  0  0  0
    4.3177   -1.2375    0.0000 C   0  0  0  0  0  0  0  0  0  0  0  0
    4.3177   -2.0625    0.0000 C   0  0  0  0  0  0  0  0  0  0  0  0
    2.8887   -1.2375    0.0000 C   0  0  0  0  0  0  0  0  0  0  0  0
    2.1742   -0.8250    0.0000 C   0  0  0  0  0  0  0  0  0  0  0  0
    1.4598   -1.2375    0.0000 C   0  0  0  0  0  0  0  0  0  0  0  0
    1.4598   -2.0625    0.0000 O   0  0  0  0  0  0  0  0  0  0  0  0
    2.1742    0.0000    0.0000 C   0  0  0  0  0  0  0  0  0  0  0  0
    2.8887    0.4125    0.0000 C   0  0  0  0  0  0  0  0  0  0  0  0
    2.8887    1.2375    0.0000 C   0  0  0  0  0  0  0  0  0  0  0  0
    3.6032    0.0000    0.0000 C   0  0  0  0  0  0  0  0  0  0  0  0
    4.3177    0.4125    0.0000 N   0  0  0  0  0  0  0  0  0  0  0  0
    5.0321   -0.8250    0.0000 C   0  0  0  0  0  0  0  0  0  0  0  0
    5.0321    0.0000    0.0000 C   0  0  0  0  0  0  0  0  0  0  0  0
  1  2  1  0  0  0  0
  2  3  1  0  0  0  0
  2  4  1  0  0  0  0
  2  5  1  0  0  0  0
  5  6  4  0  0  0  0
  5  7  4  0  0  0  0
  6 12  4  0  0  0  0
  7 11  4  0  0  0  0
  8  9  1  0  0  0  0
  8 11  1  0  0  0  0
  9 10  1  0  0  0  0
  9 15  1  0  0  0  0
  9 16  1  0  0  0  0
 10 19  1  0  0  0  0
 11 12  4  0  0  0  0
 12 13  1  0  0  0  0
 13 14  2  0  0  0  0
 13 15  1  0  0  0  0
 16 17  1  0  0  0  0
 17 18  1  0  0  0  0
 18 19  1  0  0  0  0
 18 25  1  0  0  0  0
 20 21  4  0  0  0  0
 20 23  4  0  0  0  0
 20 30  4  0  0  0  0
 21 22  1  0  0  0  0
 21 32  4  0  0  0  0
 23 24  4  0  0  0  0
 24 25  1  0  0  0  0
 24 27  4  0  0  0  0
 25 26  2  0  0  0  0
 27 28  4  0  0  0  0
 28 29  1  0  0  0  0
 28 30  4  0  0  0  0
 30 31  4  0  0  0  0
 31 33  4  0  0  0  0
 32 33  4  0  0  0  0
M  END
> <From>
www.bindingDB.org

> <BindingDB Reactant_set_id>
1397293

> <Ligand InChI>
InChI=1S/C27H31N3O2S/c1-16-6-9-28-22-17(2)12-18(13-19(16)22)24(32)30-10-7-27(8-11-30)14-20(31)23-21(15-27)33-25(29-23)26(3,4)5/h6,9,12-13H,7-8,10-11,14-15H2,1-5H3

> <Ligand InChI Key>
GXHNUOIRZHZXCL-UHFFFAOYSA-N

> <BindingDB MonomerID>
663911

> <BindingDB Ligand Name>
US20240109915, Example 96

> <Target Name>
Activating signal cointegrator 1 complex subunit 1

> <Target Source Organism According to Curator or DataSource>


> <Ki (nM)>


> <IC50 (nM)>
 26.1

> <Kd (nM)>


> <EC50 (nM)>


> <kon (M-1-s-1)>


> <koff (s-1)>


> <pH>


> <Temp C>


> <Curation/DataSource>
US Patent

> <Article DOI>


> <BindingDB Entry DOI>
10.7270/Q2348QQ2

> <PMID>


> <PubChem AID>


> <Patent Number>
US20240109915

> <Authors>
Bagley, SW; Bootsma, AN; Choi, C; Dow, RL; Edmonds, DJ; Garcia-Irizarry, CN; Gerstenberger, BS; Ingle, G; O''Brien, JG; Parikh, MD; Rescourio, GC; Schmitt, DC

> <Institution>
Pfizer

> <Link to Ligand in BindingDB>
http://www.bindingdb.org/bind/chemsearch/marvin/MolStructure.jsp?monomerid=663911

> <Link to Ligand-Target Pair in BindingDB>
http://www.bindingdb.org/jsp/dbsearch/PrimarySearch_ki.jsp?energyterm=kJ/mole&tag=pol&polymerid=735&target=Activating+signal+cointegrator+1+complex+subunit+1&column=ki&startPg=0&Increment=50&submit=Search

> <Link to Ligand-Target Pair in BindingDB>
http://www.bindingdb.org/jsp/dbsearch/PrimarySearch_ki.jsp?energyterm=kJ/mole&tag=r21&monomerid=663911&enzyme=Activating+signal+cointegrator+1+complex+subunit+1&column=ki&startPg=0&Increment=50&submit=Search

> <Ligand HET ID in PDB>


> <PDB ID(s) for Ligand-Target Complex>


> <PubChem CID>


> <PubChem SID>


> <ChEBI ID of Ligand>


> <ChEMBL ID of Ligand>


> <DrugBank ID of Ligand>


> <IUPHAR_GRAC ID of Ligand>


> <KEGG ID of Ligand>


> <ZINC ID of Ligand>


> <Number of Protein Chains in Target (bigger than 1 implies a multichain complex)>
1

> <BindingDB Target Chain Sequence>
MEVLRPQLIRIDGRNYRKNPVQEQTYQHEEDEEDFYQGSMECADEPCDAYEVEQTPQGFRSTLRAPSLLYNLIHLNTSNDCGFQKITLDCQNIYTWKSRHIVGKRGDTRKKIEMETKTSISIPKPGQDGEIVITGQHRNGVISARTRIDVLLDTFRRKQPFTHFLAFFLNEVEVQEGFLRFQEEVLAKCSMDHGVDSSIFQNPKKLHLTIGMLVLLSEEEIQQTCEMLQQCKEEFINDISGGKPLEVEMAGIEYMNDDPGMVDVLYAKVHMKDGSNRLQELVDRVLERFQASGLIVKEWNSVKLHATVMNTLFRKDPNAEGRYNLYTAEGKYIFKERESFDGRNILKSFALLPRLEYNDAISAHCNLCLPGSSDSPASASQVAGITGVSDAYSQSLPGKS

> <PDB ID(s) of Target Chain>


> <UniProt (SwissProt) Recommended Name of Target Chain>
Activating signal cointegrator 1 complex subunit 1

> <UniProt (SwissProt) Entry Name of Target Chain>
ASCC1_HUMAN

> <UniProt (SwissProt) Primary ID of Target Chain>
Q8N9N2

> <UniProt (SwissProt) Secondary ID(s) of Target Chain>
Q5SW06 Q5SW07 Q96EI8 Q9Y307

> <UniProt (SwissProt) Alternative ID(s) of Target Chain>


> <UniProt (TrEMBL) Submitted Name of Target Chain>


> <UniProt (TrEMBL) Entry Name of Target Chain>


> <UniProt (TrEMBL) Primary ID of Target Chain>


> <UniProt (TrEMBL) Secondary ID(s) of Target Chain>


> <UniProt (TrEMBL) Alternative ID(s) of Target Chain>


$$$$
00295001.cdx
  Mrv0541 06272400352D          

 32 36  0  0  0  0            999 V2000
   -5.2873    0.4125    0.0000 C   0  0  0  0  0  0  0  0  0  0  0  0
   -4.4623    0.4125    0.0000 C   0  0  0  0  0  0  0  0  0  0  0  0
   -4.8748   -0.3020    0.0000 C   0  0  0  0  0  0  0  0  0  0  0  0
   -4.8748    1.1270    0.0000 C   0  0  0  0  0  0  0  0  0  0  0  0
   -3.6373    0.4125    0.0000 C   0  0  0  0  0  0  0  0  0  0  0  0
   -3.1524    1.0799    0.0000 N   0  0  0  0  0  0  0  0  0  0  0  0
   -3.1524   -0.2549    0.0000 S   0  0  0  0  0  0  0  0  0  0  0  0
   -1.6533   -0.4125    0.0000 C   0  0  0  0  0  0  0  0  0  0  0  0
   -0.9388    0.0000    0.0000 C   0  0  0  0  0  0  0  0  0  0  0  0
   -0.9388   -0.8250    0.0000 C   0  0  0  0  0  0  0  0  0  0  0  0
   -2.3677    0.0000    0.0000 C   0  0  0  0  0  0  0  0  0  0  0  0
   -2.3677    0.8250    0.0000 C   0  0  0  0  0  0  0  0  0  0  0  0
   -1.6533    1.2375    0.0000 C   0  0  0  0  0  0  0  0  0  0  0  0
   -1.6533    2.0625    0.0000 O   0  0  0  0  0  0  0  0  0  0  0  0
   -0.9388    0.8250    0.0000 C   0  0  0  0  0  0  0  0  0  0  0  0
   -0.2243    0.4125    0.0000 C   0  0  0  0  0  0  0  0  0  0  0  0
    0.4901    0.0000    0.0000 C   0  0  0  0  0  0  0  0  0  0  0  0
    0.4901   -0.8250    0.0000 N   0  0  0  0  0  0  0  0  0  0  0  0
   -0.2243   -1.2375    0.0000 C   0  0  0  0  0  0  0  0  0  0  0  0
    1.2046   -1.2375    0.0000 C   0  0  0  0  0  0  0  0  0  0  0  0
    1.9191   -0.8250    0.0000 C   0  0  0  0  0  0  0  0  0  0  0  0
    2.0053   -0.0045    0.0000 C   0  0  0  0  0  0  0  0  0  0  0  0
    2.8123    0.1670    0.0000 C   0  0  0  0  0  0  0  0  0  0  0  0
    3.2248    0.8815    0.0000 C   0  0  0  0  0  0  0  0  0  0  0  0
    4.0498    0.8815    0.0000 C   0  0  0  0  0  0  0  0  0  0  0  0
    4.4623    0.1670    0.0000 C   0  0  0  0  0  0  0  0  0  0  0  0
    4.0498   -0.5475    0.0000 C   0  0  0  0  0  0  0  0  0  0  0  0
    4.4623   -1.2619    0.0000 O   0  0  0  0  0  0  0  0  0  0  0  0
    3.2248   -0.5475    0.0000 C   0  0  0  0  0  0  0  0  0  0  0  0
    2.6728   -1.1606    0.0000 N   0  0  0  0  0  0  0  0  0  0  0  0
    1.2046   -2.0625    0.0000 O   0  0  0  0  0  0  0  0  0  0  0  0
    5.2873   -1.2619    0.0000 C   0  0  0  0  0  0  0  0  0  0  0  0
  1  2  1  0  0  0  0
  2  3  1  0  0  0  0
  2  4  1  0  0  0  0
  2  5  1  0  0  0  0
  5  6  4  0  0  0  0
  5  7  4  0  0  0  0
  6 12  4  0  0  0  0
  7 11  4  0  0  0  0
  8  9  1  0  0  0  0
  8 11  1  0  0  0  0
  9 10  1  0  0  0  0
  9 15  1  0  0  0  0
  9 16  1  0  0  0  0
 10 19  1  0  0  0  0
 11 12  4  0  0  0  0
 12 13  1  0  0  0  0
 13 14  2  0  0  0  0
 13 15  1  0  0  0  0
 16 17  1  0  0  0  0
 17 18  1  0  0  0  0
 18 19  1  0  0  0  0
 18 20  1  0  0  0  0
 20 31  2  0  0  0  0
 20 21  1  0  0  0  0
 21 22  4  0  0  0  0
 21 30  4  0  0  0  0
 22 23  4  0  0  0  0
 23 24  4  0  0  0  0
 23 29  4  0  0  0  0
 24 25  4  0  0  0  0
 25 26  4  0  0  0  0
 26 27  4  0  0  0  0
 27 28  1  0  0  0  0
 27 29  4  0  0  0  0
 28 32  1  0  0  0  0
 29 30  4  0  0  0  0
M  STY  1   1 DAT
M  SAL   1  1  30
M  SDT   1 MRV_IMPLICIT_H                                        
M  SDD   1     0.0000    0.0000    DR    ALL  0       0  
M  SED   1 IMPL_H1
M  END
> <From>
www.bindingDB.org

> <BindingDB Reactant_set_id>
1397258

> <Ligand InChI>
InChI=1S/C25H29N3O3S/c1-24(2,3)23-27-21-17(29)13-25(14-19(21)32-23)8-10-28(11-9-25)22(30)16-12-15-6-5-7-18(31-4)20(15)26-16/h5-7,12,26H,8-11,13-14H2,1-4H3

> <Ligand InChI Key>
INBGUPRWOXYNJV-UHFFFAOYSA-N

> <BindingDB MonomerID>
663876

> <BindingDB Ligand Name>
US20240109915, Example 60

> <Target Name>
Activating signal cointegrator 1 complex subunit 1

> <Target Source Organism According to Curator or DataSource>


> <Ki (nM)>


> <IC50 (nM)>
 27.3

> <Kd (nM)>


> <EC50 (nM)>


> <kon (M-1-s-1)>


> <koff (s-1)>


> <pH>


> <Temp C>


> <Curation/DataSource>
US Patent

> <Article DOI>


> <BindingDB Entry DOI>
10.7270/Q2348QQ2

> <PMID>


> <PubChem AID>


> <Patent Number>
US20240109915

> <Authors>
Bagley, SW; Bootsma, AN; Choi, C; Dow, RL; Edmonds, DJ; Garcia-Irizarry, CN; Gerstenberger, BS; Ingle, G; O''Brien, JG; Parikh, MD; Rescourio, GC; Schmitt, DC

> <Institution>
Pfizer

> <Link to Ligand in BindingDB>
http://www.bindingdb.org/bind/chemsearch/marvin/MolStructure.jsp?monomerid=663876

> <Link to Ligand-Target Pair in BindingDB>
http://www.bindingdb.org/jsp/dbsearch/PrimarySearch_ki.jsp?energyterm=kJ/mole&tag=pol&polymerid=735&target=Activating+signal+cointegrator+1+complex+subunit+1&column=ki&startPg=0&Increment=50&submit=Search

> <Link to Ligand-Target Pair in BindingDB>
http://www.bindingdb.org/jsp/dbsearch/PrimarySearch_ki.jsp?energyterm=kJ/mole&tag=r21&monomerid=663876&enzyme=Activating+signal+cointegrator+1+complex+subunit+1&column=ki&startPg=0&Increment=50&submit=Search

> <Ligand HET ID in PDB>


> <PDB ID(s) for Ligand-Target Complex>


> <PubChem CID>


> <PubChem SID>


> <ChEBI ID of Ligand>


> <ChEMBL ID of Ligand>


> <DrugBank ID of Ligand>


> <IUPHAR_GRAC ID of Ligand>


> <KEGG ID of Ligand>


> <ZINC ID of Ligand>


> <Number of Protein Chains in Target (bigger than 1 implies a multichain complex)>
1

> <BindingDB Target Chain Sequence>
MEVLRPQLIRIDGRNYRKNPVQEQTYQHEEDEEDFYQGSMECADEPCDAYEVEQTPQGFRSTLRAPSLLYNLIHLNTSNDCGFQKITLDCQNIYTWKSRHIVGKRGDTRKKIEMETKTSISIPKPGQDGEIVITGQHRNGVISARTRIDVLLDTFRRKQPFTHFLAFFLNEVEVQEGFLRFQEEVLAKCSMDHGVDSSIFQNPKKLHLTIGMLVLLSEEEIQQTCEMLQQCKEEFINDISGGKPLEVEMAGIEYMNDDPGMVDVLYAKVHMKDGSNRLQELVDRVLERFQASGLIVKEWNSVKLHATVMNTLFRKDPNAEGRYNLYTAEGKYIFKERESFDGRNILKSFALLPRLEYNDAISAHCNLCLPGSSDSPASASQVAGITGVSDAYSQSLPGKS

> <PDB ID(s) of Target Chain>


> <UniProt (SwissProt) Recommended Name of Target Chain>
Activating signal cointegrator 1 complex subunit 1

> <UniProt (SwissProt) Entry Name of Target Chain>
ASCC1_HUMAN

> <UniProt (SwissProt) Primary ID of Target Chain>
Q8N9N2

> <UniProt (SwissProt) Secondary ID(s) of Target Chain>
Q5SW06 Q5SW07 Q96EI8 Q9Y307

> <UniProt (SwissProt) Alternative ID(s) of Target Chain>


> <UniProt (TrEMBL) Submitted Name of Target Chain>


> <UniProt (TrEMBL) Entry Name of Target Chain>


> <UniProt (TrEMBL) Primary ID of Target Chain>


> <UniProt (TrEMBL) Secondary ID(s) of Target Chain>


> <UniProt (TrEMBL) Alternative ID(s) of Target Chain>


$$$$
00262001.cdx
  Mrv0541 06272400352D          

 33 37  0  0  0  0            999 V2000
   -2.1126    0.8250    0.0000 C   0  0  0  0  0  0  0  0  0  0  0  0
   -2.1126    0.0000    0.0000 C   0  0  0  0  0  0  0  0  0  0  0  0
   -1.3981   -0.4125    0.0000 C   0  0  0  0  0  0  0  0  0  0  0  0
   -0.6836    0.0000    0.0000 C   0  0  0  0  0  0  0  0  0  0  0  0
   -0.6836    0.8250    0.0000 C   0  0  0  0  0  0  0  0  0  0  0  0
   -1.3981    1.2375    0.0000 C   0  0  0  0  0  0  0  0  0  0  0  0
   -0.6836   -0.8250    0.0000 C   0  0  0  0  0  0  0  0  0  0  0  0
    0.0308   -1.2375    0.0000 C   0  0  0  0  0  0  0  0  0  0  0  0
    0.7453   -0.8250    0.0000 N   0  0  0  0  0  0  0  0  0  0  0  0
    0.7453    0.0000    0.0000 C   0  0  0  0  0  0  0  0  0  0  0  0
    0.0308    0.4125    0.0000 C   0  0  0  0  0  0  0  0  0  0  0  0
    1.4598   -1.2375    0.0000 C   0  0  0  0  0  0  0  0  0  0  0  0
    2.1742   -0.8250    0.0000 C   0  0  0  0  0  0  0  0  0  0  0  0
    1.4598   -2.0625    0.0000 O   0  0  0  0  0  0  0  0  0  0  0  0
    2.8887   -1.2375    0.0000 C   0  0  0  0  0  0  0  0  0  0  0  0
    3.6032   -0.8250    0.0000 C   0  0  0  0  0  0  0  0  0  0  0  0
    3.6032    0.0000    0.0000 C   0  0  0  0  0  0  0  0  0  0  0  0
    2.8887    0.4125    0.0000 C   0  0  0  0  0  0  0  0  0  0  0  0
    2.1742    0.0000    0.0000 C   0  0  0  0  0  0  0  0  0  0  0  0
   -1.3981    2.0625    0.0000 O   0  0  0  0  0  0  0  0  0  0  0  0
   -2.8972    1.0799    0.0000 N   0  0  0  0  0  0  0  0  0  0  0  0
   -3.3821    0.4125    0.0000 C   0  0  0  0  0  0  0  0  0  0  0  0
   -2.8972   -0.2549    0.0000 S   0  0  0  0  0  0  0  0  0  0  0  0
   -4.2071    0.4125    0.0000 C   0  0  0  0  0  0  0  0  0  0  0  0
   -4.6196    1.1270    0.0000 C   0  0  0  0  0  0  0  0  0  0  0  0
   -4.6196   -0.3020    0.0000 C   0  0  0  0  0  0  0  0  0  0  0  0
   -5.0321    0.4125    0.0000 C   0  0  0  0  0  0  0  0  0  0  0  0
    4.3177   -1.2375    0.0000 C   0  0  0  0  0  0  0  0  0  0  0  0
    5.0321   -0.8250    0.0000 N   0  0  0  0  0  0  0  0  0  0  0  0
    5.0321    0.0000    0.0000 C   0  0  0  0  0  0  0  0  0  0  0  0
    4.3177    0.4125    0.0000 C   0  0  0  0  0  0  0  0  0  0  0  0
    4.3177   -2.0625    0.0000 C   0  0  0  0  0  0  0  0  0  0  0  0
    4.3177    1.2375    0.0000 C   0  0  0  0  0  0  0  0  0  0  0  0
  1  2  4  0  0  0  0
  2  3  1  0  0  0  0
  3  4  1  0  0  0  0
  4  5  1  0  0  0  0
  5  6  1  0  0  0  0
  6  1  1  0  0  0  0
  4  7  1  0  0  0  0
  7  8  1  0  0  0  0
  8  9  1  0  0  0  0
  9 10  1  0  0  0  0
 10 11  1  0  0  0  0
 11  4  1  0  0  0  0
  9 12  1  0  0  0  0
 12 13  1  0  0  0  0
 12 14  2  0  0  0  0
 13 15  4  0  0  0  0
 15 16  4  0  0  0  0
 16 17  4  0  0  0  0
 17 18  4  0  0  0  0
 18 19  4  0  0  0  0
 19 13  4  0  0  0  0
  6 20  2  0  0  0  0
  1 21  4  0  0  0  0
 21 22  4  0  0  0  0
 22 23  4  0  0  0  0
 23  2  4  0  0  0  0
 22 24  1  0  0  0  0
 24 25  1  0  0  0  0
 24 26  1  0  0  0  0
 24 27  1  0  0  0  0
 16 28  4  0  0  0  0
 28 29  4  0  0  0  0
 29 30  4  0  0  0  0
 30 31  4  0  0  0  0
 31 17  4  0  0  0  0
 28 32  1  0  0  0  0
 31 33  1  0  0  0  0
M  END
> <From>
www.bindingDB.org

> <BindingDB Reactant_set_id>
1397227

> <Ligand InChI>
InChI=1S/C27H31N3O2S/c1-16-15-28-17(2)20-12-18(6-7-19(16)20)24(32)30-10-8-27(9-11-30)13-21(31)23-22(14-27)33-25(29-23)26(3,4)5/h6-7,12,15H,8-11,13-14H2,1-5H3

> <Ligand InChI Key>
MFUQVNYEEYFKQO-UHFFFAOYSA-N

> <BindingDB MonomerID>
663845

> <BindingDB Ligand Name>
US20240109915, Example 27

> <Target Name>
Activating signal cointegrator 1 complex subunit 1

> <Target Source Organism According to Curator or DataSource>


> <Ki (nM)>


> <IC50 (nM)>
 29.5

> <Kd (nM)>


> <EC50 (nM)>


> <kon (M-1-s-1)>


> <koff (s-1)>


> <pH>


> <Temp C>


> <Curation/DataSource>
US Patent

> <Article DOI>


> <BindingDB Entry DOI>
10.7270/Q2348QQ2

> <PMID>


> <PubChem AID>


> <Patent Number>
US20240109915

> <Authors>
Bagley, SW; Bootsma, AN; Choi, C; Dow, RL; Edmonds, DJ; Garcia-Irizarry, CN; Gerstenberger, BS; Ingle, G; O''Brien, JG; Parikh, MD; Rescourio, GC; Schmitt, DC

> <Institution>
Pfizer

> <Link to Ligand in BindingDB>
http://www.bindingdb.org/bind/chemsearch/marvin/MolStructure.jsp?monomerid=663845

> <Link to Ligand-Target Pair in BindingDB>
http://www.bindingdb.org/jsp/dbsearch/PrimarySearch_ki.jsp?energyterm=kJ/mole&tag=pol&polymerid=735&target=Activating+signal+cointegrator+1+complex+subunit+1&column=ki&startPg=0&Increment=50&submit=Search

> <Link to Ligand-Target Pair in BindingDB>
http://www.bindingdb.org/jsp/dbsearch/PrimarySearch_ki.jsp?energyterm=kJ/mole&tag=r21&monomerid=663845&enzyme=Activating+signal+cointegrator+1+complex+subunit+1&column=ki&startPg=0&Increment=50&submit=Search

> <Ligand HET ID in PDB>


> <PDB ID(s) for Ligand-Target Complex>


> <PubChem CID>


> <PubChem SID>


> <ChEBI ID of Ligand>


> <ChEMBL ID of Ligand>


> <DrugBank ID of Ligand>


> <IUPHAR_GRAC ID of Ligand>


> <KEGG ID of Ligand>


> <ZINC ID of Ligand>


> <Number of Protein Chains in Target (bigger than 1 implies a multichain complex)>
1

> <BindingDB Target Chain Sequence>
MEVLRPQLIRIDGRNYRKNPVQEQTYQHEEDEEDFYQGSMECADEPCDAYEVEQTPQGFRSTLRAPSLLYNLIHLNTSNDCGFQKITLDCQNIYTWKSRHIVGKRGDTRKKIEMETKTSISIPKPGQDGEIVITGQHRNGVISARTRIDVLLDTFRRKQPFTHFLAFFLNEVEVQEGFLRFQEEVLAKCSMDHGVDSSIFQNPKKLHLTIGMLVLLSEEEIQQTCEMLQQCKEEFINDISGGKPLEVEMAGIEYMNDDPGMVDVLYAKVHMKDGSNRLQELVDRVLERFQASGLIVKEWNSVKLHATVMNTLFRKDPNAEGRYNLYTAEGKYIFKERESFDGRNILKSFALLPRLEYNDAISAHCNLCLPGSSDSPASASQVAGITGVSDAYSQSLPGKS

> <PDB ID(s) of Target Chain>


> <UniProt (SwissProt) Recommended Name of Target Chain>
Activating signal cointegrator 1 complex subunit 1

> <UniProt (SwissProt) Entry Name of Target Chain>
ASCC1_HUMAN

> <UniProt (SwissProt) Primary ID of Target Chain>
Q8N9N2

> <UniProt (SwissProt) Secondary ID(s) of Target Chain>
Q5SW06 Q5SW07 Q96EI8 Q9Y307

> <UniProt (SwissProt) Alternative ID(s) of Target Chain>


> <UniProt (TrEMBL) Submitted Name of Target Chain>


> <UniProt (TrEMBL) Entry Name of Target Chain>


> <UniProt (TrEMBL) Primary ID of Target Chain>


> <UniProt (TrEMBL) Secondary ID(s) of Target Chain>


> <UniProt (TrEMBL) Alternative ID(s) of Target Chain>


$$$$
00255001.cdx
  Mrv0541 06272400352D          

 35 39  0  0  0  0            999 V2000
   -3.1843    0.8250    0.0000 C   0  0  0  0  0  0  0  0  0  0  0  0
   -3.1843    0.0000    0.0000 C   0  0  0  0  0  0  0  0  0  0  0  0
   -2.4698   -0.4125    0.0000 C   0  0  0  0  0  0  0  0  0  0  0  0
   -1.7553    0.0000    0.0000 C   0  0  0  0  0  0  0  0  0  0  0  0
   -1.7553    0.8250    0.0000 C   0  0  0  0  0  0  0  0  0  0  0  0
   -2.4698    1.2375    0.0000 C   0  0  0  0  0  0  0  0  0  0  0  0
   -1.7553   -0.8250    0.0000 C   0  0  0  0  0  0  0  0  0  0  0  0
   -1.0409   -1.2375    0.0000 C   0  0  0  0  0  0  0  0  0  0  0  0
   -0.3264   -0.8250    0.0000 N   0  0  0  0  0  0  0  0  0  0  0  0
   -0.3264    0.0000    0.0000 C   0  0  0  0  0  0  0  0  0  0  0  0
   -1.0409    0.4125    0.0000 C   0  0  0  0  0  0  0  0  0  0  0  0
    0.3881   -1.2375    0.0000 C   0  0  0  0  0  0  0  0  0  0  0  0
    1.1025   -0.8250    0.0000 C   0  0  0  0  0  0  0  0  0  0  0  0
    0.3881   -2.0625    0.0000 O   0  0  0  0  0  0  0  0  0  0  0  0
    1.8170   -1.2375    0.0000 C   0  0  0  0  0  0  0  0  0  0  0  0
    2.5315   -0.8250    0.0000 C   0  0  0  0  0  0  0  0  0  0  0  0
    2.5315    0.0000    0.0000 C   0  0  0  0  0  0  0  0  0  0  0  0
    1.8170    0.4125    0.0000 C   0  0  0  0  0  0  0  0  0  0  0  0
    1.1025    0.0000    0.0000 C   0  0  0  0  0  0  0  0  0  0  0  0
    1.8170    1.2375    0.0000 C   0  0  0  0  0  0  0  0  0  0  0  0
   -2.4698    2.0625    0.0000 O   0  0  0  0  0  0  0  0  0  0  0  0
   -3.9689    1.0799    0.0000 N   0  0  0  0  0  0  0  0  0  0  0  0
   -4.4538    0.4125    0.0000 C   0  0  0  0  0  0  0  0  0  0  0  0
   -3.9689   -0.2549    0.0000 S   0  0  0  0  0  0  0  0  0  0  0  0
   -5.2788    0.4125    0.0000 C   0  0  0  0  0  0  0  0  0  0  0  0
   -5.6913    1.1270    0.0000 C   0  0  0  0  0  0  0  0  0  0  0  0
   -5.6913   -0.3020    0.0000 C   0  0  0  0  0  0  0  0  0  0  0  0
   -6.1038    0.4125    0.0000 C   0  0  0  0  0  0  0  0  0  0  0  0
    3.2460   -1.2375    0.0000 C   0  0  0  0  0  0  0  0  0  0  0  0
    3.9604   -0.8250    0.0000 C   0  0  0  0  0  0  0  0  0  0  0  0
    3.9604    0.0000    0.0000 C   0  0  0  0  0  0  0  0  0  0  0  0
    3.2460    0.4125    0.0000 N   0  0  0  0  0  0  0  0  0  0  0  0
    4.6749   -1.2375    0.0000 O   0  0  0  0  0  0  0  0  0  0  0  0
    5.3894   -0.8250    0.0000 C   0  0  0  0  0  0  0  0  0  0  0  0
    6.1038   -1.2375    0.0000 C   0  0  0  0  0  0  0  0  0  0  0  0
  1  2  4  0  0  0  0
  2  3  1  0  0  0  0
  3  4  1  0  0  0  0
  4  5  1  0  0  0  0
  5  6  1  0  0  0  0
  6  1  1  0  0  0  0
  4  7  1  0  0  0  0
  7  8  1  0  0  0  0
  8  9  1  0  0  0  0
  9 10  1  0  0  0  0
 10 11  1  0  0  0  0
 11  4  1  0  0  0  0
  9 12  1  0  0  0  0
 12 13  1  0  0  0  0
 12 14  2  0  0  0  0
 13 15  4  0  0  0  0
 15 16  4  0  0  0  0
 16 17  4  0  0  0  0
 17 18  4  0  0  0  0
 18 19  4  0  0  0  0
 19 13  4  0  0  0  0
 18 20  1  0  0  0  0
  6 21  2  0  0  0  0
  1 22  4  0  0  0  0
 22 23  4  0  0  0  0
 23 24  4  0  0  0  0
 24  2  4  0  0  0  0
 23 25  1  0  0  0  0
 25 26  1  0  0  0  0
 25 27  1  0  0  0  0
 25 28  1  0  0  0  0
 16 29  4  0  0  0  0
 29 30  4  0  0  0  0
 30 31  4  0  0  0  0
 31 32  4  0  0  0  0
 32 17  4  0  0  0  0
 30 33  1  0  0  0  0
 33 34  1  0  0  0  0
 34 35  1  0  0  0  0
M  END
> <From>
www.bindingDB.org

> <BindingDB Reactant_set_id>
1397221

> <Ligand InChI>
InChI=1S/C28H33N3O3S/c1-6-34-20-13-18-12-19(11-17(2)23(18)29-16-20)25(33)31-9-7-28(8-10-31)14-21(32)24-22(15-28)35-26(30-24)27(3,4)5/h11-13,16H,6-10,14-15H2,1-5H3

> <Ligand InChI Key>
ZMQXRCKJJKMVOC-UHFFFAOYSA-N

> <BindingDB MonomerID>
663839

> <BindingDB Ligand Name>
US20240109915, Example 20

> <Target Name>
Activating signal cointegrator 1 complex subunit 1

> <Target Source Organism According to Curator or DataSource>


> <Ki (nM)>


> <IC50 (nM)>
 30.1

> <Kd (nM)>


> <EC50 (nM)>


> <kon (M-1-s-1)>


> <koff (s-1)>


> <pH>


> <Temp C>


> <Curation/DataSource>
US Patent

> <Article DOI>


> <BindingDB Entry DOI>
10.7270/Q2348QQ2

> <PMID>


> <PubChem AID>


> <Patent Number>
US20240109915

> <Authors>
Bagley, SW; Bootsma, AN; Choi, C; Dow, RL; Edmonds, DJ; Garcia-Irizarry, CN; Gerstenberger, BS; Ingle, G; O''Brien, JG; Parikh, MD; Rescourio, GC; Schmitt, DC

> <Institution>
Pfizer

> <Link to Ligand in BindingDB>
http://www.bindingdb.org/bind/chemsearch/marvin/MolStructure.jsp?monomerid=663839

> <Link to Ligand-Target Pair in BindingDB>
http://www.bindingdb.org/jsp/dbsearch/PrimarySearch_ki.jsp?energyterm=kJ/mole&tag=pol&polymerid=735&target=Activating+signal+cointegrator+1+complex+subunit+1&column=ki&startPg=0&Increment=50&submit=Search

> <Link to Ligand-Target Pair in BindingDB>
http://www.bindingdb.org/jsp/dbsearch/PrimarySearch_ki.jsp?energyterm=kJ/mole&tag=r21&monomerid=663839&enzyme=Activating+signal+cointegrator+1+complex+subunit+1&column=ki&startPg=0&Increment=50&submit=Search

> <Ligand HET ID in PDB>


> <PDB ID(s) for Ligand-Target Complex>


> <PubChem CID>


> <PubChem SID>


> <ChEBI ID of Ligand>


> <ChEMBL ID of Ligand>


> <DrugBank ID of Ligand>


> <IUPHAR_GRAC ID of Ligand>


> <KEGG ID of Ligand>


> <ZINC ID of Ligand>


> <Number of Protein Chains in Target (bigger than 1 implies a multichain complex)>
1

> <BindingDB Target Chain Sequence>
MEVLRPQLIRIDGRNYRKNPVQEQTYQHEEDEEDFYQGSMECADEPCDAYEVEQTPQGFRSTLRAPSLLYNLIHLNTSNDCGFQKITLDCQNIYTWKSRHIVGKRGDTRKKIEMETKTSISIPKPGQDGEIVITGQHRNGVISARTRIDVLLDTFRRKQPFTHFLAFFLNEVEVQEGFLRFQEEVLAKCSMDHGVDSSIFQNPKKLHLTIGMLVLLSEEEIQQTCEMLQQCKEEFINDISGGKPLEVEMAGIEYMNDDPGMVDVLYAKVHMKDGSNRLQELVDRVLERFQASGLIVKEWNSVKLHATVMNTLFRKDPNAEGRYNLYTAEGKYIFKERESFDGRNILKSFALLPRLEYNDAISAHCNLCLPGSSDSPASASQVAGITGVSDAYSQSLPGKS

> <PDB ID(s) of Target Chain>


> <UniProt (SwissProt) Recommended Name of Target Chain>
Activating signal cointegrator 1 complex subunit 1

> <UniProt (SwissProt) Entry Name of Target Chain>
ASCC1_HUMAN

> <UniProt (SwissProt) Primary ID of Target Chain>
Q8N9N2

> <UniProt (SwissProt) Secondary ID(s) of Target Chain>
Q5SW06 Q5SW07 Q96EI8 Q9Y307

> <UniProt (SwissProt) Alternative ID(s) of Target Chain>


> <UniProt (TrEMBL) Submitted Name of Target Chain>


> <UniProt (TrEMBL) Entry Name of Target Chain>


> <UniProt (TrEMBL) Primary ID of Target Chain>


> <UniProt (TrEMBL) Secondary ID(s) of Target Chain>


> <UniProt (TrEMBL) Alternative ID(s) of Target Chain>


$$$$
00340001.cdx
  Mrv0541 06272400352D          

 35 39  0  0  0  0            999 V2000
   -5.7466    0.4125    0.0000 C   0  0  0  0  0  0  0  0  0  0  0  0
   -4.9216    0.4125    0.0000 C   0  0  0  0  0  0  0  0  0  0  0  0
   -5.3341    1.1270    0.0000 C   0  0  0  0  0  0  0  0  0  0  0  0
   -5.3341   -0.3020    0.0000 C   0  0  0  0  0  0  0  0  0  0  0  0
   -4.0966    0.4125    0.0000 C   0  0  0  0  0  0  0  0  0  0  0  0
   -3.6117    1.0799    0.0000 N   0  0  0  0  0  0  0  0  0  0  0  0
   -3.6117   -0.2549    0.0000 S   0  0  0  0  0  0  0  0  0  0  0  0
   -2.1126   -0.4125    0.0000 C   0  0  0  0  0  0  0  0  0  0  0  0
   -1.3981    0.0000    0.0000 C   0  0  0  0  0  0  0  0  0  0  0  0
   -1.3981   -0.8250    0.0000 C   0  0  0  0  0  0  0  0  0  0  0  0
   -2.8271    0.0000    0.0000 C   0  0  0  0  0  0  0  0  0  0  0  0
   -2.8271    0.8250    0.0000 C   0  0  0  0  0  0  0  0  0  0  0  0
   -2.1126    1.2375    0.0000 C   0  0  0  0  0  0  0  0  0  0  0  0
   -2.1126    2.0625    0.0000 O   0  0  0  0  0  0  0  0  0  0  0  0
   -1.3981    0.8250    0.0000 C   0  0  0  0  0  0  0  0  0  0  0  0
   -0.6836    0.4125    0.0000 C   0  0  0  0  0  0  0  0  0  0  0  0
    0.0308    0.0000    0.0000 C   0  0  0  0  0  0  0  0  0  0  0  0
    0.0308   -0.8250    0.0000 N   0  0  0  0  0  0  0  0  0  0  0  0
   -0.6836   -1.2375    0.0000 C   0  0  0  0  0  0  0  0  0  0  0  0
    1.4598    1.6500    0.0000 C   0  0  0  0  0  0  0  0  0  0  0  0
    2.1742    1.2375    0.0000 O   0  0  0  0  0  0  0  0  0  0  0  0
    1.4598   -0.8250    0.0000 C   0  0  0  0  0  0  0  0  0  0  0  0
    0.7453   -1.2375    0.0000 C   0  0  0  0  0  0  0  0  0  0  0  0
    0.7453   -2.0625    0.0000 O   0  0  0  0  0  0  0  0  0  0  0  0
    1.4598    0.0000    0.0000 C   0  0  0  0  0  0  0  0  0  0  0  0
    2.1742    0.4125    0.0000 C   0  0  0  0  0  0  0  0  0  0  0  0
    2.8887    0.0000    0.0000 C   0  0  0  0  0  0  0  0  0  0  0  0
    2.8887   -0.8250    0.0000 C   0  0  0  0  0  0  0  0  0  0  0  0
    3.6032   -1.2375    0.0000 C   0  0  0  0  0  0  0  0  0  0  0  0
    4.3177   -0.8250    0.0000 C   0  0  0  0  0  0  0  0  0  0  0  0
    4.3177    0.0000    0.0000 C   0  0  0  0  0  0  0  0  0  0  0  0
    3.6032    0.4125    0.0000 N   0  0  0  0  0  0  0  0  0  0  0  0
    5.0321   -1.2375    0.0000 C   0  0  0  0  0  0  0  0  0  0  0  0
    5.7466   -0.8250    0.0000 C   0  0  0  0  0  0  0  0  0  0  0  0
    2.1742   -1.2375    0.0000 C   0  0  0  0  0  0  0  0  0  0  0  0
  1  2  1  0  0  0  0
  2  3  1  0  0  0  0
  2  4  1  0  0  0  0
  2  5  1  0  0  0  0
  5  6  4  0  0  0  0
  5  7  4  0  0  0  0
  6 12  4  0  0  0  0
  7 11  4  0  0  0  0
  8  9  1  0  0  0  0
  8 11  1  0  0  0  0
  9 10  1  0  0  0  0
  9 15  1  0  0  0  0
  9 16  1  0  0  0  0
 10 19  1  0  0  0  0
 11 12  4  0  0  0  0
 12 13  1  0  0  0  0
 13 14  2  0  0  0  0
 13 15  1  0  0  0  0
 16 17  1  0  0  0  0
 17 18  1  0  0  0  0
 18 19  1  0  0  0  0
 18 23  1  0  0  0  0
 20 21  1  0  0  0  0
 21 26  1  0  0  0  0
 22 23  1  0  0  0  0
 22 25  4  0  0  0  0
 22 35  4  0  0  0  0
 23 24  2  0  0  0  0
 25 26  4  0  0  0  0
 26 27  4  0  0  0  0
 27 32  4  0  0  0  0
 27 28  4  0  0  0  0
 28 29  4  0  0  0  0
 28 35  4  0  0  0  0
 29 30  4  0  0  0  0
 30 31  4  0  0  0  0
 30 33  1  0  0  0  0
 31 32  4  0  0  0  0
 33 34  1  0  0  0  0
M  END
> <From>
www.bindingDB.org

> <BindingDB Reactant_set_id>
1397302

> <Ligand InChI>
InChI=1S/C28H33N3O3S/c1-6-17-11-18-12-19(13-21(34-5)23(18)29-16-17)25(33)31-9-7-28(8-10-31)14-20(32)24-22(15-28)35-26(30-24)27(2,3)4/h11-13,16H,6-10,14-15H2,1-5H3

> <Ligand InChI Key>
PRVGALVRADUHDI-UHFFFAOYSA-N

> <BindingDB MonomerID>
663920

> <BindingDB Ligand Name>
US20240109915, Example 105

> <Target Name>
Activating signal cointegrator 1 complex subunit 1

> <Target Source Organism According to Curator or DataSource>


> <Ki (nM)>


> <IC50 (nM)>
 33.6

> <Kd (nM)>


> <EC50 (nM)>


> <kon (M-1-s-1)>


> <koff (s-1)>


> <pH>


> <Temp C>


> <Curation/DataSource>
US Patent

> <Article DOI>


> <BindingDB Entry DOI>
10.7270/Q2348QQ2

> <PMID>


> <PubChem AID>


> <Patent Number>
US20240109915

> <Authors>
Bagley, SW; Bootsma, AN; Choi, C; Dow, RL; Edmonds, DJ; Garcia-Irizarry, CN; Gerstenberger, BS; Ingle, G; O''Brien, JG; Parikh, MD; Rescourio, GC; Schmitt, DC

> <Institution>
Pfizer

> <Link to Ligand in BindingDB>
http://www.bindingdb.org/bind/chemsearch/marvin/MolStructure.jsp?monomerid=663920

> <Link to Ligand-Target Pair in BindingDB>
http://www.bindingdb.org/jsp/dbsearch/PrimarySearch_ki.jsp?energyterm=kJ/mole&tag=pol&polymerid=735&target=Activating+signal+cointegrator+1+complex+subunit+1&column=ki&startPg=0&Increment=50&submit=Search

> <Link to Ligand-Target Pair in BindingDB>
http://www.bindingdb.org/jsp/dbsearch/PrimarySearch_ki.jsp?energyterm=kJ/mole&tag=r21&monomerid=663920&enzyme=Activating+signal+cointegrator+1+complex+subunit+1&column=ki&startPg=0&Increment=50&submit=Search

> <Ligand HET ID in PDB>


> <PDB ID(s) for Ligand-Target Complex>


> <PubChem CID>


> <PubChem SID>


> <ChEBI ID of Ligand>


> <ChEMBL ID of Ligand>


> <DrugBank ID of Ligand>


> <IUPHAR_GRAC ID of Ligand>


> <KEGG ID of Ligand>


> <ZINC ID of Ligand>


> <Number of Protein Chains in Target (bigger than 1 implies a multichain complex)>
1

> <BindingDB Target Chain Sequence>
MEVLRPQLIRIDGRNYRKNPVQEQTYQHEEDEEDFYQGSMECADEPCDAYEVEQTPQGFRSTLRAPSLLYNLIHLNTSNDCGFQKITLDCQNIYTWKSRHIVGKRGDTRKKIEMETKTSISIPKPGQDGEIVITGQHRNGVISARTRIDVLLDTFRRKQPFTHFLAFFLNEVEVQEGFLRFQEEVLAKCSMDHGVDSSIFQNPKKLHLTIGMLVLLSEEEIQQTCEMLQQCKEEFINDISGGKPLEVEMAGIEYMNDDPGMVDVLYAKVHMKDGSNRLQELVDRVLERFQASGLIVKEWNSVKLHATVMNTLFRKDPNAEGRYNLYTAEGKYIFKERESFDGRNILKSFALLPRLEYNDAISAHCNLCLPGSSDSPASASQVAGITGVSDAYSQSLPGKS

> <PDB ID(s) of Target Chain>


> <UniProt (SwissProt) Recommended Name of Target Chain>
Activating signal cointegrator 1 complex subunit 1

> <UniProt (SwissProt) Entry Name of Target Chain>
ASCC1_HUMAN

> <UniProt (SwissProt) Primary ID of Target Chain>
Q8N9N2

> <UniProt (SwissProt) Secondary ID(s) of Target Chain>
Q5SW06 Q5SW07 Q96EI8 Q9Y307

> <UniProt (SwissProt) Alternative ID(s) of Target Chain>


> <UniProt (TrEMBL) Submitted Name of Target Chain>


> <UniProt (TrEMBL) Entry Name of Target Chain>


> <UniProt (TrEMBL) Primary ID of Target Chain>


> <UniProt (TrEMBL) Secondary ID(s) of Target Chain>


> <UniProt (TrEMBL) Alternative ID(s) of Target Chain>


$$$$
00241001.cdx
  Mrv0541 06272400352D          

 30 34  0  0  0  0            999 V2000
   -2.2391    0.8250    0.0000 C   0  0  0  0  0  0  0  0  0  0  0  0
   -2.2391    0.0000    0.0000 C   0  0  0  0  0  0  0  0  0  0  0  0
   -1.5247   -0.4125    0.0000 C   0  0  0  0  0  0  0  0  0  0  0  0
   -0.8102    0.0000    0.0000 C   0  0  0  0  0  0  0  0  0  0  0  0
   -0.8102    0.8250    0.0000 C   0  0  0  0  0  0  0  0  0  0  0  0
   -1.5247    1.2375    0.0000 C   0  0  0  0  0  0  0  0  0  0  0  0
   -0.8102   -0.8250    0.0000 C   0  0  0  0  0  0  0  0  0  0  0  0
   -0.0957   -1.2375    0.0000 C   0  0  0  0  0  0  0  0  0  0  0  0
    0.6187   -0.8250    0.0000 N   0  0  0  0  0  0  0  0  0  0  0  0
    0.6187    0.0000    0.0000 C   0  0  0  0  0  0  0  0  0  0  0  0
   -0.0957    0.4125    0.0000 C   0  0  0  0  0  0  0  0  0  0  0  0
    1.3332   -1.2375    0.0000 C   0  0  0  0  0  0  0  0  0  0  0  0
    2.0477   -0.8250    0.0000 C   0  0  0  0  0  0  0  0  0  0  0  0
    1.3332   -2.0625    0.0000 O   0  0  0  0  0  0  0  0  0  0  0  0
    2.7622   -1.2375    0.0000 C   0  0  0  0  0  0  0  0  0  0  0  0
    3.4766   -0.8250    0.0000 C   0  0  0  0  0  0  0  0  0  0  0  0
    3.4766    0.0000    0.0000 C   0  0  0  0  0  0  0  0  0  0  0  0
    2.7622    0.4125    0.0000 C   0  0  0  0  0  0  0  0  0  0  0  0
    2.0477    0.0000    0.0000 C   0  0  0  0  0  0  0  0  0  0  0  0
    4.2613   -1.0799    0.0000 C   0  0  0  0  0  0  0  0  0  0  0  0
    4.7462   -0.4125    0.0000 N   0  0  0  0  0  0  0  0  0  0  0  0
    4.2613    0.2549    0.0000 N   0  0  0  0  0  0  0  0  0  0  0  0
    2.7622    1.2375    0.0000 C   0  0  0  0  0  0  0  0  0  0  0  0
    4.5162   -1.8646    0.0000 C   0  0  0  0  0  0  0  0  0  0  0  0
   -1.5247    2.0625    0.0000 O   0  0  0  0  0  0  0  0  0  0  0  0
   -3.0238    1.0799    0.0000 N   0  0  0  0  0  0  0  0  0  0  0  0
   -3.5087    0.4125    0.0000 C   0  0  0  0  0  0  0  0  0  0  0  0
   -3.0238   -0.2549    0.0000 S   0  0  0  0  0  0  0  0  0  0  0  0
   -4.3337    0.4125    0.0000 C   0  0  0  0  0  0  0  0  0  0  0  0
   -4.7462   -0.3020    0.0000 C   0  0  0  0  0  0  0  0  0  0  0  0
  1  2  4  0  0  0  0
  2  3  1  0  0  0  0
  3  4  1  0  0  0  0
  4  5  1  0  0  0  0
  5  6  1  0  0  0  0
  6  1  1  0  0  0  0
  4  7  1  0  0  0  0
  7  8  1  0  0  0  0
  8  9  1  0  0  0  0
  9 10  1  0  0  0  0
 10 11  1  0  0  0  0
 11  4  1  0  0  0  0
  9 12  1  0  0  0  0
 12 13  1  0  0  0  0
 12 14  2  0  0  0  0
 13 15  4  0  0  0  0
 15 16  4  0  0  0  0
 16 17  4  0  0  0  0
 17 18  4  0  0  0  0
 18 19  4  0  0  0  0
 19 13  4  0  0  0  0
 16 20  4  0  0  0  0
 20 21  4  0  0  0  0
 21 22  4  0  0  0  0
 22 17  4  0  0  0  0
 18 23  1  0  0  0  0
 20 24  1  0  0  0  0
  6 25  2  0  0  0  0
  1 26  4  0  0  0  0
 26 27  4  0  0  0  0
 27 28  4  0  0  0  0
 28  2  4  0  0  0  0
 27 29  1  0  0  0  0
 29 30  1  0  0  0  0
M  STY  1   1 DAT
M  SAL   1  1  22
M  SDT   1 MRV_IMPLICIT_H                                        
M  SDD   1     0.0000    0.0000    DR    ALL  0       0  
M  SED   1 IMPL_H1
M  END
> <From>
www.bindingDB.org

> <BindingDB Reactant_set_id>
1397207

> <Ligand InChI>
InChI=1S/C23H26N4O2S/c1-4-19-24-21-17(28)11-23(12-18(21)30-19)5-7-27(8-6-23)22(29)15-9-13(2)20-16(10-15)14(3)25-26-20/h9-10H,4-8,11-12H2,1-3H3,(H,25,26)

> <Ligand InChI Key>
TXVAZGYCZNXECP-UHFFFAOYSA-N

> <BindingDB MonomerID>
663825

> <BindingDB Ligand Name>
US20240109915, Example 6

> <Target Name>
Activating signal cointegrator 1 complex subunit 1

> <Target Source Organism According to Curator or DataSource>


> <Ki (nM)>


> <IC50 (nM)>
 45.5

> <Kd (nM)>


> <EC50 (nM)>


> <kon (M-1-s-1)>


> <koff (s-1)>


> <pH>


> <Temp C>


> <Curation/DataSource>
US Patent

> <Article DOI>


> <BindingDB Entry DOI>
10.7270/Q2348QQ2

> <PMID>


> <PubChem AID>


> <Patent Number>
US20240109915

> <Authors>
Bagley, SW; Bootsma, AN; Choi, C; Dow, RL; Edmonds, DJ; Garcia-Irizarry, CN; Gerstenberger, BS; Ingle, G; O''Brien, JG; Parikh, MD; Rescourio, GC; Schmitt, DC

> <Institution>
Pfizer

> <Link to Ligand in BindingDB>
http://www.bindingdb.org/bind/chemsearch/marvin/MolStructure.jsp?monomerid=663825

> <Link to Ligand-Target Pair in BindingDB>
http://www.bindingdb.org/jsp/dbsearch/PrimarySearch_ki.jsp?energyterm=kJ/mole&tag=pol&polymerid=735&target=Activating+signal+cointegrator+1+complex+subunit+1&column=ki&startPg=0&Increment=50&submit=Search

> <Link to Ligand-Target Pair in BindingDB>
http://www.bindingdb.org/jsp/dbsearch/PrimarySearch_ki.jsp?energyterm=kJ/mole&tag=r21&monomerid=663825&enzyme=Activating+signal+cointegrator+1+complex+subunit+1&column=ki&startPg=0&Increment=50&submit=Search

> <Ligand HET ID in PDB>


> <PDB ID(s) for Ligand-Target Complex>


> <PubChem CID>


> <PubChem SID>


> <ChEBI ID of Ligand>


> <ChEMBL ID of Ligand>


> <DrugBank ID of Ligand>


> <IUPHAR_GRAC ID of Ligand>


> <KEGG ID of Ligand>


> <ZINC ID of Ligand>


> <Number of Protein Chains in Target (bigger than 1 implies a multichain complex)>
1

> <BindingDB Target Chain Sequence>
MEVLRPQLIRIDGRNYRKNPVQEQTYQHEEDEEDFYQGSMECADEPCDAYEVEQTPQGFRSTLRAPSLLYNLIHLNTSNDCGFQKITLDCQNIYTWKSRHIVGKRGDTRKKIEMETKTSISIPKPGQDGEIVITGQHRNGVISARTRIDVLLDTFRRKQPFTHFLAFFLNEVEVQEGFLRFQEEVLAKCSMDHGVDSSIFQNPKKLHLTIGMLVLLSEEEIQQTCEMLQQCKEEFINDISGGKPLEVEMAGIEYMNDDPGMVDVLYAKVHMKDGSNRLQELVDRVLERFQASGLIVKEWNSVKLHATVMNTLFRKDPNAEGRYNLYTAEGKYIFKERESFDGRNILKSFALLPRLEYNDAISAHCNLCLPGSSDSPASASQVAGITGVSDAYSQSLPGKS

> <PDB ID(s) of Target Chain>


> <UniProt (SwissProt) Recommended Name of Target Chain>
Activating signal cointegrator 1 complex subunit 1

> <UniProt (SwissProt) Entry Name of Target Chain>
ASCC1_HUMAN

> <UniProt (SwissProt) Primary ID of Target Chain>
Q8N9N2

> <UniProt (SwissProt) Secondary ID(s) of Target Chain>
Q5SW06 Q5SW07 Q96EI8 Q9Y307

> <UniProt (SwissProt) Alternative ID(s) of Target Chain>


> <UniProt (TrEMBL) Submitted Name of Target Chain>


> <UniProt (TrEMBL) Entry Name of Target Chain>


> <UniProt (TrEMBL) Primary ID of Target Chain>


> <UniProt (TrEMBL) Secondary ID(s) of Target Chain>


> <UniProt (TrEMBL) Alternative ID(s) of Target Chain>


$$$$
00330001.cdx
  Mrv0541 06272400352D          

 34 38  0  0  0  0            999 V2000
   -5.0321    0.4125    0.0000 C   0  0  0  0  0  0  0  0  0  0  0  0
   -4.2071    0.4125    0.0000 C   0  0  0  0  0  0  0  0  0  0  0  0
   -4.6196    1.1270    0.0000 C   0  0  0  0  0  0  0  0  0  0  0  0
   -4.6196   -0.3020    0.0000 C   0  0  0  0  0  0  0  0  0  0  0  0
   -3.3821    0.4125    0.0000 C   0  0  0  0  0  0  0  0  0  0  0  0
   -2.8972    1.0799    0.0000 N   0  0  0  0  0  0  0  0  0  0  0  0
   -2.8972   -0.2549    0.0000 S   0  0  0  0  0  0  0  0  0  0  0  0
   -1.3981   -0.4125    0.0000 C   0  0  0  0  0  0  0  0  0  0  0  0
   -0.6836    0.0000    0.0000 C   0  0  0  0  0  0  0  0  0  0  0  0
   -0.6836   -0.8250    0.0000 C   0  0  0  0  0  0  0  0  0  0  0  0
   -2.1126    0.0000    0.0000 C   0  0  0  0  0  0  0  0  0  0  0  0
   -2.1126    0.8250    0.0000 C   0  0  0  0  0  0  0  0  0  0  0  0
   -1.3981    1.2375    0.0000 C   0  0  0  0  0  0  0  0  0  0  0  0
   -1.3981    2.0625    0.0000 O   0  0  0  0  0  0  0  0  0  0  0  0
   -0.6836    0.8250    0.0000 C   0  0  0  0  0  0  0  0  0  0  0  0
    0.0308    0.4125    0.0000 C   0  0  0  0  0  0  0  0  0  0  0  0
    0.7453    0.0000    0.0000 C   0  0  0  0  0  0  0  0  0  0  0  0
    0.7453   -0.8250    0.0000 N   0  0  0  0  0  0  0  0  0  0  0  0
    0.0308   -1.2375    0.0000 C   0  0  0  0  0  0  0  0  0  0  0  0
    2.1742    1.6500    0.0000 C   0  0  0  0  0  0  0  0  0  0  0  0
    2.8887    1.2375    0.0000 O   0  0  0  0  0  0  0  0  0  0  0  0
    3.6032   -0.8250    0.0000 C   0  0  0  0  0  0  0  0  0  0  0  0
    4.3177   -1.2375    0.0000 C   0  0  0  0  0  0  0  0  0  0  0  0
    4.3177   -2.0625    0.0000 C   0  0  0  0  0  0  0  0  0  0  0  0
    2.8887   -1.2375    0.0000 C   0  0  0  0  0  0  0  0  0  0  0  0
    2.1742   -0.8250    0.0000 C   0  0  0  0  0  0  0  0  0  0  0  0
    1.4598   -1.2375    0.0000 C   0  0  0  0  0  0  0  0  0  0  0  0
    1.4598   -2.0625    0.0000 O   0  0  0  0  0  0  0  0  0  0  0  0
    2.1742    0.0000    0.0000 C   0  0  0  0  0  0  0  0  0  0  0  0
    2.8887    0.4125    0.0000 C   0  0  0  0  0  0  0  0  0  0  0  0
    3.6032    0.0000    0.0000 C   0  0  0  0  0  0  0  0  0  0  0  0
    4.3177    0.4125    0.0000 N   0  0  0  0  0  0  0  0  0  0  0  0
    5.0321   -0.8250    0.0000 C   0  0  0  0  0  0  0  0  0  0  0  0
    5.0321    0.0000    0.0000 C   0  0  0  0  0  0  0  0  0  0  0  0
  1  2  1  0  0  0  0
  2  3  1  0  0  0  0
  2  4  1  0  0  0  0
  2  5  1  0  0  0  0
  5  6  4  0  0  0  0
  5  7  4  0  0  0  0
  6 12  4  0  0  0  0
  7 11  4  0  0  0  0
  8  9  1  0  0  0  0
  8 11  1  0  0  0  0
  9 10  1  0  0  0  0
  9 15  1  0  0  0  0
  9 16  1  0  0  0  0
 10 19  1  0  0  0  0
 11 12  4  0  0  0  0
 12 13  1  0  0  0  0
 13 14  2  0  0  0  0
 13 15  1  0  0  0  0
 16 17  1  0  0  0  0
 17 18  1  0  0  0  0
 18 19  1  0  0  0  0
 18 27  1  0  0  0  0
 20 21  1  0  0  0  0
 21 30  1  0  0  0  0
 22 23  4  0  0  0  0
 22 25  4  0  0  0  0
 22 31  4  0  0  0  0
 23 24  1  0  0  0  0
 23 33  4  0  0  0  0
 25 26  4  0  0  0  0
 26 27  1  0  0  0  0
 26 29  4  0  0  0  0
 27 28  2  0  0  0  0
 29 30  4  0  0  0  0
 30 31  4  0  0  0  0
 31 32  4  0  0  0  0
 32 34  4  0  0  0  0
 33 34  4  0  0  0  0
M  END
> <From>
www.bindingDB.org

> <BindingDB Reactant_set_id>
1397292

> <Ligand InChI>
InChI=1S/C27H31N3O3S/c1-16-6-9-28-22-18(16)12-17(13-20(22)33-5)24(32)30-10-7-27(8-11-30)14-19(31)23-21(15-27)34-25(29-23)26(2,3)4/h6,9,12-13H,7-8,10-11,14-15H2,1-5H3

> <Ligand InChI Key>
JBJDIACEJNVSHO-UHFFFAOYSA-N

> <BindingDB MonomerID>
663910

> <BindingDB Ligand Name>
US20240109915, Example 95

> <Target Name>
Activating signal cointegrator 1 complex subunit 1

> <Target Source Organism According to Curator or DataSource>


> <Ki (nM)>


> <IC50 (nM)>
 46.5

> <Kd (nM)>


> <EC50 (nM)>


> <kon (M-1-s-1)>


> <koff (s-1)>


> <pH>


> <Temp C>


> <Curation/DataSource>
US Patent

> <Article DOI>


> <BindingDB Entry DOI>
10.7270/Q2348QQ2

> <PMID>


> <PubChem AID>


> <Patent Number>
US20240109915

> <Authors>
Bagley, SW; Bootsma, AN; Choi, C; Dow, RL; Edmonds, DJ; Garcia-Irizarry, CN; Gerstenberger, BS; Ingle, G; O''Brien, JG; Parikh, MD; Rescourio, GC; Schmitt, DC

> <Institution>
Pfizer

> <Link to Ligand in BindingDB>
http://www.bindingdb.org/bind/chemsearch/marvin/MolStructure.jsp?monomerid=663910

> <Link to Ligand-Target Pair in BindingDB>
http://www.bindingdb.org/jsp/dbsearch/PrimarySearch_ki.jsp?energyterm=kJ/mole&tag=pol&polymerid=735&target=Activating+signal+cointegrator+1+complex+subunit+1&column=ki&startPg=0&Increment=50&submit=Search

> <Link to Ligand-Target Pair in BindingDB>
http://www.bindingdb.org/jsp/dbsearch/PrimarySearch_ki.jsp?energyterm=kJ/mole&tag=r21&monomerid=663910&enzyme=Activating+signal+cointegrator+1+complex+subunit+1&column=ki&startPg=0&Increment=50&submit=Search

> <Ligand HET ID in PDB>


> <PDB ID(s) for Ligand-Target Complex>


> <PubChem CID>


> <PubChem SID>


> <ChEBI ID of Ligand>


> <ChEMBL ID of Ligand>


> <DrugBank ID of Ligand>


> <IUPHAR_GRAC ID of Ligand>


> <KEGG ID of Ligand>


> <ZINC ID of Ligand>


> <Number of Protein Chains in Target (bigger than 1 implies a multichain complex)>
1

> <BindingDB Target Chain Sequence>
MEVLRPQLIRIDGRNYRKNPVQEQTYQHEEDEEDFYQGSMECADEPCDAYEVEQTPQGFRSTLRAPSLLYNLIHLNTSNDCGFQKITLDCQNIYTWKSRHIVGKRGDTRKKIEMETKTSISIPKPGQDGEIVITGQHRNGVISARTRIDVLLDTFRRKQPFTHFLAFFLNEVEVQEGFLRFQEEVLAKCSMDHGVDSSIFQNPKKLHLTIGMLVLLSEEEIQQTCEMLQQCKEEFINDISGGKPLEVEMAGIEYMNDDPGMVDVLYAKVHMKDGSNRLQELVDRVLERFQASGLIVKEWNSVKLHATVMNTLFRKDPNAEGRYNLYTAEGKYIFKERESFDGRNILKSFALLPRLEYNDAISAHCNLCLPGSSDSPASASQVAGITGVSDAYSQSLPGKS

> <PDB ID(s) of Target Chain>


> <UniProt (SwissProt) Recommended Name of Target Chain>
Activating signal cointegrator 1 complex subunit 1

> <UniProt (SwissProt) Entry Name of Target Chain>
ASCC1_HUMAN

> <UniProt (SwissProt) Primary ID of Target Chain>
Q8N9N2

> <UniProt (SwissProt) Secondary ID(s) of Target Chain>
Q5SW06 Q5SW07 Q96EI8 Q9Y307

> <UniProt (SwissProt) Alternative ID(s) of Target Chain>


> <UniProt (TrEMBL) Submitted Name of Target Chain>


> <UniProt (TrEMBL) Entry Name of Target Chain>


> <UniProt (TrEMBL) Primary ID of Target Chain>


> <UniProt (TrEMBL) Secondary ID(s) of Target Chain>


> <UniProt (TrEMBL) Alternative ID(s) of Target Chain>


$$$$
00311001.cdx
  Mrv0541 06272400352D          

 32 36  0  0  0  0            999 V2000
   -3.3024    0.4125    0.0000 C   0  0  0  0  0  0  0  0  0  0  0  0
   -2.8175    1.0799    0.0000 N   0  0  0  0  0  0  0  0  0  0  0  0
   -4.1274    0.4125    0.0000 C   0  0  0  0  0  0  0  0  0  0  0  0
   -2.8175   -0.2549    0.0000 S   0  0  0  0  0  0  0  0  0  0  0  0
   -4.9524    0.4125    0.0000 C   0  0  0  0  0  0  0  0  0  0  0  0
   -4.5399   -0.3020    0.0000 C   0  0  0  0  0  0  0  0  0  0  0  0
   -4.5399    1.1270    0.0000 C   0  0  0  0  0  0  0  0  0  0  0  0
   -1.3184   -0.4125    0.0000 C   0  0  0  0  0  0  0  0  0  0  0  0
   -0.6039    0.0000    0.0000 C   0  0  0  0  0  0  0  0  0  0  0  0
   -0.6039   -0.8250    0.0000 C   0  0  0  0  0  0  0  0  0  0  0  0
   -2.0329    0.0000    0.0000 C   0  0  0  0  0  0  0  0  0  0  0  0
   -2.0329    0.8250    0.0000 C   0  0  0  0  0  0  0  0  0  0  0  0
   -1.3184    1.2375    0.0000 C   0  0  0  0  0  0  0  0  0  0  0  0
   -1.3184    2.0625    0.0000 O   0  0  0  0  0  0  0  0  0  0  0  0
   -0.6039    0.8250    0.0000 C   0  0  0  0  0  0  0  0  0  0  0  0
    0.1105    0.4125    0.0000 C   0  0  0  0  0  0  0  0  0  0  0  0
    0.8250    0.0000    0.0000 C   0  0  0  0  0  0  0  0  0  0  0  0
    0.8250   -0.8250    0.0000 N   0  0  0  0  0  0  0  0  0  0  0  0
    0.1105   -1.2375    0.0000 C   0  0  0  0  0  0  0  0  0  0  0  0
    1.5395   -1.2375    0.0000 C   0  0  0  0  0  0  0  0  0  0  0  0
    1.5395   -2.0625    0.0000 O   0  0  0  0  0  0  0  0  0  0  0  0
    2.2539   -0.8250    0.0000 C   0  0  0  0  0  0  0  0  0  0  0  0
    2.2539    0.0000    0.0000 C   0  0  0  0  0  0  0  0  0  0  0  0
    2.9684    0.4125    0.0000 C   0  0  0  0  0  0  0  0  0  0  0  0
    2.9684    1.2375    0.0000 C   0  0  0  0  0  0  0  0  0  0  0  0
    3.6829    0.0000    0.0000 C   0  0  0  0  0  0  0  0  0  0  0  0
    3.6829   -0.8250    0.0000 C   0  0  0  0  0  0  0  0  0  0  0  0
    4.4675   -1.0799    0.0000 C   0  0  0  0  0  0  0  0  0  0  0  0
    4.9524   -0.4125    0.0000 C   0  0  0  0  0  0  0  0  0  0  0  0
    4.4675    0.2549    0.0000 N   0  0  0  0  0  0  0  0  0  0  0  0
    2.9684   -1.2375    0.0000 C   0  0  0  0  0  0  0  0  0  0  0  0
    4.7224    1.0396    0.0000 C   0  0  0  0  0  0  0  0  0  0  0  0
  1  2  4  0  0  0  0
  1  3  1  0  0  0  0
  1  4  4  0  0  0  0
  2 12  4  0  0  0  0
  3  5  1  0  0  0  0
  3  6  1  0  0  0  0
  3  7  1  0  0  0  0
  4 11  4  0  0  0  0
  8  9  1  0  0  0  0
  8 11  1  0  0  0  0
  9 10  1  0  0  0  0
  9 15  1  0  0  0  0
  9 16  1  0  0  0  0
 10 19  1  0  0  0  0
 11 12  4  0  0  0  0
 12 13  1  0  0  0  0
 13 14  2  0  0  0  0
 13 15  1  0  0  0  0
 16 17  1  0  0  0  0
 17 18  1  0  0  0  0
 18 19  1  0  0  0  0
 18 20  1  0  0  0  0
 20 21  2  0  0  0  0
 20 22  1  0  0  0  0
 22 23  4  0  0  0  0
 22 31  4  0  0  0  0
 23 24  4  0  0  0  0
 24 25  1  0  0  0  0
 24 26  4  0  0  0  0
 26 30  4  0  0  0  0
 26 27  4  0  0  0  0
 27 28  4  0  0  0  0
 27 31  4  0  0  0  0
 28 29  4  0  0  0  0
 29 30  4  0  0  0  0
 30 32  1  0  0  0  0
M  END
> <From>
www.bindingDB.org

> <BindingDB Reactant_set_id>
1397273

> <Ligand InChI>
InChI=1S/C26H31N3O2S/c1-16-12-18(13-17-6-9-28(5)22(16)17)23(31)29-10-7-26(8-11-29)14-19(30)21-20(15-26)32-24(27-21)25(2,3)4/h6,9,12-13H,7-8,10-11,14-15H2,1-5H3

> <Ligand InChI Key>
GBOKWEVHFLWYTJ-UHFFFAOYSA-N

> <BindingDB MonomerID>
663891

> <BindingDB Ligand Name>
US20240109915, Example 76

> <Target Name>
Activating signal cointegrator 1 complex subunit 1

> <Target Source Organism According to Curator or DataSource>


> <Ki (nM)>


> <IC50 (nM)>
 65.4

> <Kd (nM)>


> <EC50 (nM)>


> <kon (M-1-s-1)>


> <koff (s-1)>


> <pH>


> <Temp C>


> <Curation/DataSource>
US Patent

> <Article DOI>


> <BindingDB Entry DOI>
10.7270/Q2348QQ2

> <PMID>


> <PubChem AID>


> <Patent Number>
US20240109915

> <Authors>
Bagley, SW; Bootsma, AN; Choi, C; Dow, RL; Edmonds, DJ; Garcia-Irizarry, CN; Gerstenberger, BS; Ingle, G; O''Brien, JG; Parikh, MD; Rescourio, GC; Schmitt, DC

> <Institution>
Pfizer

> <Link to Ligand in BindingDB>
http://www.bindingdb.org/bind/chemsearch/marvin/MolStructure.jsp?monomerid=663891

> <Link to Ligand-Target Pair in BindingDB>
http://www.bindingdb.org/jsp/dbsearch/PrimarySearch_ki.jsp?energyterm=kJ/mole&tag=pol&polymerid=735&target=Activating+signal+cointegrator+1+complex+subunit+1&column=ki&startPg=0&Increment=50&submit=Search

> <Link to Ligand-Target Pair in BindingDB>
http://www.bindingdb.org/jsp/dbsearch/PrimarySearch_ki.jsp?energyterm=kJ/mole&tag=r21&monomerid=663891&enzyme=Activating+signal+cointegrator+1+complex+subunit+1&column=ki&startPg=0&Increment=50&submit=Search

> <Ligand HET ID in PDB>


> <PDB ID(s) for Ligand-Target Complex>


> <PubChem CID>


> <PubChem SID>


> <ChEBI ID of Ligand>


> <ChEMBL ID of Ligand>


> <DrugBank ID of Ligand>


> <IUPHAR_GRAC ID of Ligand>


> <KEGG ID of Ligand>


> <ZINC ID of Ligand>


> <Number of Protein Chains in Target (bigger than 1 implies a multichain complex)>
1

> <BindingDB Target Chain Sequence>
MEVLRPQLIRIDGRNYRKNPVQEQTYQHEEDEEDFYQGSMECADEPCDAYEVEQTPQGFRSTLRAPSLLYNLIHLNTSNDCGFQKITLDCQNIYTWKSRHIVGKRGDTRKKIEMETKTSISIPKPGQDGEIVITGQHRNGVISARTRIDVLLDTFRRKQPFTHFLAFFLNEVEVQEGFLRFQEEVLAKCSMDHGVDSSIFQNPKKLHLTIGMLVLLSEEEIQQTCEMLQQCKEEFINDISGGKPLEVEMAGIEYMNDDPGMVDVLYAKVHMKDGSNRLQELVDRVLERFQASGLIVKEWNSVKLHATVMNTLFRKDPNAEGRYNLYTAEGKYIFKERESFDGRNILKSFALLPRLEYNDAISAHCNLCLPGSSDSPASASQVAGITGVSDAYSQSLPGKS

> <PDB ID(s) of Target Chain>


> <UniProt (SwissProt) Recommended Name of Target Chain>
Activating signal cointegrator 1 complex subunit 1

> <UniProt (SwissProt) Entry Name of Target Chain>
ASCC1_HUMAN

> <UniProt (SwissProt) Primary ID of Target Chain>
Q8N9N2

> <UniProt (SwissProt) Secondary ID(s) of Target Chain>
Q5SW06 Q5SW07 Q96EI8 Q9Y307

> <UniProt (SwissProt) Alternative ID(s) of Target Chain>


> <UniProt (TrEMBL) Submitted Name of Target Chain>


> <UniProt (TrEMBL) Entry Name of Target Chain>


> <UniProt (TrEMBL) Primary ID of Target Chain>


> <UniProt (TrEMBL) Secondary ID(s) of Target Chain>


> <UniProt (TrEMBL) Alternative ID(s) of Target Chain>


$$$$
00281001.cdx
  Mrv0541 06272400352D          

 33 37  0  0  0  0            999 V2000
   -5.0321    0.6187    0.0000 C   0  0  0  0  0  0  0  0  0  0  0  0
   -4.2071    0.6187    0.0000 C   0  0  0  0  0  0  0  0  0  0  0  0
   -4.6196   -0.0957    0.0000 C   0  0  0  0  0  0  0  0  0  0  0  0
   -4.6196    1.3332    0.0000 C   0  0  0  0  0  0  0  0  0  0  0  0
   -3.3821    0.6187    0.0000 C   0  0  0  0  0  0  0  0  0  0  0  0
   -2.8972    1.2862    0.0000 N   0  0  0  0  0  0  0  0  0  0  0  0
   -2.8972   -0.0487    0.0000 S   0  0  0  0  0  0  0  0  0  0  0  0
   -1.3981   -0.2062    0.0000 C   0  0  0  0  0  0  0  0  0  0  0  0
   -0.6836    0.2062    0.0000 C   0  0  0  0  0  0  0  0  0  0  0  0
   -0.6836   -0.6187    0.0000 C   0  0  0  0  0  0  0  0  0  0  0  0
   -2.1126    0.2062    0.0000 C   0  0  0  0  0  0  0  0  0  0  0  0
   -2.1126    1.0312    0.0000 C   0  0  0  0  0  0  0  0  0  0  0  0
   -1.3981    1.4437    0.0000 C   0  0  0  0  0  0  0  0  0  0  0  0
   -1.3981    2.2687    0.0000 O   0  0  0  0  0  0  0  0  0  0  0  0
   -0.6836    1.0312    0.0000 C   0  0  0  0  0  0  0  0  0  0  0  0
    0.0308    0.6187    0.0000 C   0  0  0  0  0  0  0  0  0  0  0  0
    0.7453    0.2062    0.0000 C   0  0  0  0  0  0  0  0  0  0  0  0
    0.7453   -0.6187    0.0000 N   0  0  0  0  0  0  0  0  0  0  0  0
    0.0308   -1.0312    0.0000 C   0  0  0  0  0  0  0  0  0  0  0  0
    4.3177   -1.8562    0.0000 O   0  0  0  0  0  0  0  0  0  0  0  0
    5.0321   -2.2687    0.0000 C   0  0  0  0  0  0  0  0  0  0  0  0
    2.8887   -1.0312    0.0000 C   0  0  0  0  0  0  0  0  0  0  0  0
    3.6032   -0.6187    0.0000 C   0  0  0  0  0  0  0  0  0  0  0  0
    4.3177   -1.0312    0.0000 C   0  0  0  0  0  0  0  0  0  0  0  0
    2.1742   -0.6187    0.0000 C   0  0  0  0  0  0  0  0  0  0  0  0
    1.4598   -1.0312    0.0000 C   0  0  0  0  0  0  0  0  0  0  0  0
    1.4598   -1.8562    0.0000 O   0  0  0  0  0  0  0  0  0  0  0  0
    2.1742    0.2062    0.0000 C   0  0  0  0  0  0  0  0  0  0  0  0
    2.8887    0.6187    0.0000 C   0  0  0  0  0  0  0  0  0  0  0  0
    3.6032    0.2062    0.0000 C   0  0  0  0  0  0  0  0  0  0  0  0
    4.3177    0.6187    0.0000 C   0  0  0  0  0  0  0  0  0  0  0  0
    5.0321    0.2062    0.0000 C   0  0  0  0  0  0  0  0  0  0  0  0
    5.0321   -0.6187    0.0000 N   0  0  0  0  0  0  0  0  0  0  0  0
  1  2  1  0  0  0  0
  2  3  1  0  0  0  0
  2  4  1  0  0  0  0
  2  5  1  0  0  0  0
  5  6  4  0  0  0  0
  5  7  4  0  0  0  0
  6 12  4  0  0  0  0
  7 11  4  0  0  0  0
  8  9  1  0  0  0  0
  8 11  1  0  0  0  0
  9 10  1  0  0  0  0
  9 15  1  0  0  0  0
  9 16  1  0  0  0  0
 10 19  1  0  0  0  0
 11 12  4  0  0  0  0
 12 13  1  0  0  0  0
 13 14  2  0  0  0  0
 13 15  1  0  0  0  0
 16 17  1  0  0  0  0
 17 18  1  0  0  0  0
 18 19  1  0  0  0  0
 18 26  1  0  0  0  0
 20 21  1  0  0  0  0
 20 24  1  0  0  0  0
 22 23  4  0  0  0  0
 22 25  4  0  0  0  0
 23 24  4  0  0  0  0
 23 30  4  0  0  0  0
 24 33  4  0  0  0  0
 25 26  1  0  0  0  0
 25 28  4  0  0  0  0
 26 27  2  0  0  0  0
 28 29  4  0  0  0  0
 29 30  4  0  0  0  0
 30 31  4  0  0  0  0
 31 32  4  0  0  0  0
 32 33  4  0  0  0  0
M  END
> <From>
www.bindingDB.org

> <BindingDB Reactant_set_id>
1397245

> <Ligand InChI>
InChI=1S/C26H29N3O3S/c1-25(2,3)24-28-21-19(30)14-26(15-20(21)33-24)8-11-29(12-9-26)23(31)17-6-5-16-7-10-27-22(32-4)18(16)13-17/h5-7,10,13H,8-9,11-12,14-15H2,1-4H3

> <Ligand InChI Key>
FUEFREAOTRZKCN-UHFFFAOYSA-N

> <BindingDB MonomerID>
663863

> <BindingDB Ligand Name>
US20240109915, Example 46

> <Target Name>
Activating signal cointegrator 1 complex subunit 1

> <Target Source Organism According to Curator or DataSource>


> <Ki (nM)>


> <IC50 (nM)>
 85.9

> <Kd (nM)>


> <EC50 (nM)>


> <kon (M-1-s-1)>


> <koff (s-1)>


> <pH>


> <Temp C>


> <Curation/DataSource>
US Patent

> <Article DOI>


> <BindingDB Entry DOI>
10.7270/Q2348QQ2

> <PMID>


> <PubChem AID>


> <Patent Number>
US20240109915

> <Authors>
Bagley, SW; Bootsma, AN; Choi, C; Dow, RL; Edmonds, DJ; Garcia-Irizarry, CN; Gerstenberger, BS; Ingle, G; O''Brien, JG; Parikh, MD; Rescourio, GC; Schmitt, DC

> <Institution>
Pfizer

> <Link to Ligand in BindingDB>
http://www.bindingdb.org/bind/chemsearch/marvin/MolStructure.jsp?monomerid=663863

> <Link to Ligand-Target Pair in BindingDB>
http://www.bindingdb.org/jsp/dbsearch/PrimarySearch_ki.jsp?energyterm=kJ/mole&tag=pol&polymerid=735&target=Activating+signal+cointegrator+1+complex+subunit+1&column=ki&startPg=0&Increment=50&submit=Search

> <Link to Ligand-Target Pair in BindingDB>
http://www.bindingdb.org/jsp/dbsearch/PrimarySearch_ki.jsp?energyterm=kJ/mole&tag=r21&monomerid=663863&enzyme=Activating+signal+cointegrator+1+complex+subunit+1&column=ki&startPg=0&Increment=50&submit=Search

> <Ligand HET ID in PDB>


> <PDB ID(s) for Ligand-Target Complex>


> <PubChem CID>


> <PubChem SID>


> <ChEBI ID of Ligand>


> <ChEMBL ID of Ligand>


> <DrugBank ID of Ligand>


> <IUPHAR_GRAC ID of Ligand>


> <KEGG ID of Ligand>


> <ZINC ID of Ligand>


> <Number of Protein Chains in Target (bigger than 1 implies a multichain complex)>
1

> <BindingDB Target Chain Sequence>
MEVLRPQLIRIDGRNYRKNPVQEQTYQHEEDEEDFYQGSMECADEPCDAYEVEQTPQGFRSTLRAPSLLYNLIHLNTSNDCGFQKITLDCQNIYTWKSRHIVGKRGDTRKKIEMETKTSISIPKPGQDGEIVITGQHRNGVISARTRIDVLLDTFRRKQPFTHFLAFFLNEVEVQEGFLRFQEEVLAKCSMDHGVDSSIFQNPKKLHLTIGMLVLLSEEEIQQTCEMLQQCKEEFINDISGGKPLEVEMAGIEYMNDDPGMVDVLYAKVHMKDGSNRLQELVDRVLERFQASGLIVKEWNSVKLHATVMNTLFRKDPNAEGRYNLYTAEGKYIFKERESFDGRNILKSFALLPRLEYNDAISAHCNLCLPGSSDSPASASQVAGITGVSDAYSQSLPGKS

> <PDB ID(s) of Target Chain>


> <UniProt (SwissProt) Recommended Name of Target Chain>
Activating signal cointegrator 1 complex subunit 1

> <UniProt (SwissProt) Entry Name of Target Chain>
ASCC1_HUMAN

> <UniProt (SwissProt) Primary ID of Target Chain>
Q8N9N2

> <UniProt (SwissProt) Secondary ID(s) of Target Chain>
Q5SW06 Q5SW07 Q96EI8 Q9Y307

> <UniProt (SwissProt) Alternative ID(s) of Target Chain>


> <UniProt (TrEMBL) Submitted Name of Target Chain>


> <UniProt (TrEMBL) Entry Name of Target Chain>


> <UniProt (TrEMBL) Primary ID of Target Chain>


> <UniProt (TrEMBL) Secondary ID(s) of Target Chain>


> <UniProt (TrEMBL) Alternative ID(s) of Target Chain>


$$$$
00319001.cdx
  Mrv0541 06272400352D          

 33 37  0  0  0  0            999 V2000
   -4.9524    0.4125    0.0000 C   0  0  0  0  0  0  0  0  0  0  0  0
   -4.1274    0.4125    0.0000 C   0  0  0  0  0  0  0  0  0  0  0  0
   -4.5399    1.1270    0.0000 C   0  0  0  0  0  0  0  0  0  0  0  0
   -4.5399   -0.3020    0.0000 C   0  0  0  0  0  0  0  0  0  0  0  0
   -3.3024    0.4125    0.0000 C   0  0  0  0  0  0  0  0  0  0  0  0
   -2.8175    1.0799    0.0000 N   0  0  0  0  0  0  0  0  0  0  0  0
   -2.8175   -0.2549    0.0000 S   0  0  0  0  0  0  0  0  0  0  0  0
   -0.6039    0.0000    0.0000 C   0  0  0  0  0  0  0  0  0  0  0  0
   -0.6039   -0.8250    0.0000 C   0  0  0  0  0  0  0  0  0  0  0  0
    0.1105   -1.2375    0.0000 C   0  0  0  0  0  0  0  0  0  0  0  0
   -1.3184   -0.4125    0.0000 C   0  0  0  0  0  0  0  0  0  0  0  0
   -2.0329    0.0000    0.0000 C   0  0  0  0  0  0  0  0  0  0  0  0
   -2.0329    0.8250    0.0000 C   0  0  0  0  0  0  0  0  0  0  0  0
   -1.3184    1.2375    0.0000 C   0  0  0  0  0  0  0  0  0  0  0  0
   -1.3184    2.0625    0.0000 O   0  0  0  0  0  0  0  0  0  0  0  0
   -0.6039    0.8250    0.0000 C   0  0  0  0  0  0  0  0  0  0  0  0
    0.1105    0.4125    0.0000 C   0  0  0  0  0  0  0  0  0  0  0  0
    0.8250    0.0000    0.0000 C   0  0  0  0  0  0  0  0  0  0  0  0
    0.8250   -0.8250    0.0000 N   0  0  0  0  0  0  0  0  0  0  0  0
    4.4675    0.2549    0.0000 N   0  0  0  0  0  0  0  0  0  0  0  0
    4.7224    1.0396    0.0000 C   0  0  0  0  0  0  0  0  0  0  0  0
    2.9684   -1.2375    0.0000 C   0  0  0  0  0  0  0  0  0  0  0  0
    3.6829   -0.8250    0.0000 C   0  0  0  0  0  0  0  0  0  0  0  0
    4.4675   -1.0799    0.0000 C   0  0  0  0  0  0  0  0  0  0  0  0
    2.2539   -0.8250    0.0000 C   0  0  0  0  0  0  0  0  0  0  0  0
    1.5395   -1.2375    0.0000 C   0  0  0  0  0  0  0  0  0  0  0  0
    1.5395   -2.0625    0.0000 O   0  0  0  0  0  0  0  0  0  0  0  0
    2.2539    0.0000    0.0000 C   0  0  0  0  0  0  0  0  0  0  0  0
    2.9684    0.4125    0.0000 C   0  0  0  0  0  0  0  0  0  0  0  0
    2.9684    1.2375    0.0000 Cl  0  0  0  0  0  0  0  0  0  0  0  0
    3.6829    0.0000    0.0000 C   0  0  0  0  0  0  0  0  0  0  0  0
    4.9524   -0.4125    0.0000 N   0  0  0  0  0  0  0  0  0  0  0  0
    4.7224   -1.8646    0.0000 C   0  0  0  0  0  0  0  0  0  0  0  0
  1  2  1  0  0  0  0
  2  3  1  0  0  0  0
  2  4  1  0  0  0  0
  2  5  1  0  0  0  0
  5  6  4  0  0  0  0
  5  7  4  0  0  0  0
  6 13  4  0  0  0  0
  7 12  4  0  0  0  0
  8  9  1  0  0  0  0
  8 11  1  0  0  0  0
  8 16  1  0  0  0  0
  8 17  1  0  0  0  0
  9 10  1  0  0  0  0
 10 19  1  0  0  0  0
 11 12  1  0  0  0  0
 12 13  4  0  0  0  0
 13 14  1  0  0  0  0
 14 15  2  0  0  0  0
 14 16  1  0  0  0  0
 17 18  1  0  0  0  0
 18 19  1  0  0  0  0
 19 26  1  0  0  0  0
 20 32  4  0  0  0  0
 20 21  1  0  0  0  0
 20 31  4  0  0  0  0
 22 23  4  0  0  0  0
 22 25  4  0  0  0  0
 23 24  4  0  0  0  0
 23 31  4  0  0  0  0
 24 32  4  0  0  0  0
 24 33  1  0  0  0  0
 25 26  1  0  0  0  0
 25 28  4  0  0  0  0
 26 27  2  0  0  0  0
 28 29  4  0  0  0  0
 29 30  1  0  0  0  0
 29 31  4  0  0  0  0
M  END
> <From>
www.bindingDB.org

> <BindingDB Reactant_set_id>
1397281

> <Ligand InChI>
InChI=1S/C25H29ClN4O2S/c1-14-16-10-15(11-17(26)21(16)29(5)28-14)22(32)30-8-6-25(7-9-30)12-18(31)20-19(13-25)33-23(27-20)24(2,3)4/h10-11H,6-9,12-13H2,1-5H3

> <Ligand InChI Key>
SOZMLKMVKMUFQZ-UHFFFAOYSA-N

> <BindingDB MonomerID>
663899

> <BindingDB Ligand Name>
US20240109915, Example 84

> <Target Name>
Activating signal cointegrator 1 complex subunit 1

> <Target Source Organism According to Curator or DataSource>


> <Ki (nM)>


> <IC50 (nM)>
 92.6

> <Kd (nM)>


> <EC50 (nM)>


> <kon (M-1-s-1)>


> <koff (s-1)>


> <pH>


> <Temp C>


> <Curation/DataSource>
US Patent

> <Article DOI>


> <BindingDB Entry DOI>
10.7270/Q2348QQ2

> <PMID>


> <PubChem AID>


> <Patent Number>
US20240109915

> <Authors>
Bagley, SW; Bootsma, AN; Choi, C; Dow, RL; Edmonds, DJ; Garcia-Irizarry, CN; Gerstenberger, BS; Ingle, G; O''Brien, JG; Parikh, MD; Rescourio, GC; Schmitt, DC

> <Institution>
Pfizer

> <Link to Ligand in BindingDB>
http://www.bindingdb.org/bind/chemsearch/marvin/MolStructure.jsp?monomerid=663899

> <Link to Ligand-Target Pair in BindingDB>
http://www.bindingdb.org/jsp/dbsearch/PrimarySearch_ki.jsp?energyterm=kJ/mole&tag=pol&polymerid=735&target=Activating+signal+cointegrator+1+complex+subunit+1&column=ki&startPg=0&Increment=50&submit=Search

> <Link to Ligand-Target Pair in BindingDB>
http://www.bindingdb.org/jsp/dbsearch/PrimarySearch_ki.jsp?energyterm=kJ/mole&tag=r21&monomerid=663899&enzyme=Activating+signal+cointegrator+1+complex+subunit+1&column=ki&startPg=0&Increment=50&submit=Search

> <Ligand HET ID in PDB>


> <PDB ID(s) for Ligand-Target Complex>


> <PubChem CID>


> <PubChem SID>


> <ChEBI ID of Ligand>


> <ChEMBL ID of Ligand>


> <DrugBank ID of Ligand>


> <IUPHAR_GRAC ID of Ligand>


> <KEGG ID of Ligand>


> <ZINC ID of Ligand>


> <Number of Protein Chains in Target (bigger than 1 implies a multichain complex)>
1

> <BindingDB Target Chain Sequence>
MEVLRPQLIRIDGRNYRKNPVQEQTYQHEEDEEDFYQGSMECADEPCDAYEVEQTPQGFRSTLRAPSLLYNLIHLNTSNDCGFQKITLDCQNIYTWKSRHIVGKRGDTRKKIEMETKTSISIPKPGQDGEIVITGQHRNGVISARTRIDVLLDTFRRKQPFTHFLAFFLNEVEVQEGFLRFQEEVLAKCSMDHGVDSSIFQNPKKLHLTIGMLVLLSEEEIQQTCEMLQQCKEEFINDISGGKPLEVEMAGIEYMNDDPGMVDVLYAKVHMKDGSNRLQELVDRVLERFQASGLIVKEWNSVKLHATVMNTLFRKDPNAEGRYNLYTAEGKYIFKERESFDGRNILKSFALLPRLEYNDAISAHCNLCLPGSSDSPASASQVAGITGVSDAYSQSLPGKS

> <PDB ID(s) of Target Chain>


> <UniProt (SwissProt) Recommended Name of Target Chain>
Activating signal cointegrator 1 complex subunit 1

> <UniProt (SwissProt) Entry Name of Target Chain>
ASCC1_HUMAN

> <UniProt (SwissProt) Primary ID of Target Chain>
Q8N9N2

> <UniProt (SwissProt) Secondary ID(s) of Target Chain>
Q5SW06 Q5SW07 Q96EI8 Q9Y307

> <UniProt (SwissProt) Alternative ID(s) of Target Chain>


> <UniProt (TrEMBL) Submitted Name of Target Chain>


> <UniProt (TrEMBL) Entry Name of Target Chain>


> <UniProt (TrEMBL) Primary ID of Target Chain>


> <UniProt (TrEMBL) Secondary ID(s) of Target Chain>


> <UniProt (TrEMBL) Alternative ID(s) of Target Chain>


$$$$
00315001.cdx
  Mrv0541 06272400352D          

 34 38  0  0  0  0            999 V2000
   -5.7466    0.4125    0.0000 C   0  0  0  0  0  0  0  0  0  0  0  0
   -4.9216    0.4125    0.0000 C   0  0  0  0  0  0  0  0  0  0  0  0
   -5.3341   -0.3020    0.0000 C   0  0  0  0  0  0  0  0  0  0  0  0
   -5.3341    1.1270    0.0000 C   0  0  0  0  0  0  0  0  0  0  0  0
   -4.0966    0.4125    0.0000 C   0  0  0  0  0  0  0  0  0  0  0  0
   -3.6117    1.0799    0.0000 N   0  0  0  0  0  0  0  0  0  0  0  0
   -3.6117   -0.2549    0.0000 S   0  0  0  0  0  0  0  0  0  0  0  0
   -2.1126   -0.4125    0.0000 C   0  0  0  0  0  0  0  0  0  0  0  0
   -1.3981    0.0000    0.0000 C   0  0  0  0  0  0  0  0  0  0  0  0
   -1.3981   -0.8250    0.0000 C   0  0  0  0  0  0  0  0  0  0  0  0
   -2.8271    0.0000    0.0000 C   0  0  0  0  0  0  0  0  0  0  0  0
   -2.8271    0.8250    0.0000 C   0  0  0  0  0  0  0  0  0  0  0  0
   -2.1126    1.2375    0.0000 C   0  0  0  0  0  0  0  0  0  0  0  0
   -2.1126    2.0625    0.0000 O   0  0  0  0  0  0  0  0  0  0  0  0
   -1.3981    0.8250    0.0000 C   0  0  0  0  0  0  0  0  0  0  0  0
   -0.6836    0.4125    0.0000 C   0  0  0  0  0  0  0  0  0  0  0  0
    0.0308    0.0000    0.0000 C   0  0  0  0  0  0  0  0  0  0  0  0
    0.0308   -0.8250    0.0000 N   0  0  0  0  0  0  0  0  0  0  0  0
   -0.6836   -1.2375    0.0000 C   0  0  0  0  0  0  0  0  0  0  0  0
    1.4598   -0.8250    0.0000 C   0  0  0  0  0  0  0  0  0  0  0  0
    0.7453   -1.2375    0.0000 C   0  0  0  0  0  0  0  0  0  0  0  0
    1.4598    0.0000    0.0000 C   0  0  0  0  0  0  0  0  0  0  0  0
    2.1742    0.4125    0.0000 C   0  0  0  0  0  0  0  0  0  0  0  0
    2.1742    1.2375    0.0000 C   0  0  0  0  0  0  0  0  0  0  0  0
    2.8887    0.0000    0.0000 C   0  0  0  0  0  0  0  0  0  0  0  0
    3.6032    0.4125    0.0000 N   0  0  0  0  0  0  0  0  0  0  0  0
    2.8887   -0.8250    0.0000 C   0  0  0  0  0  0  0  0  0  0  0  0
    3.6032   -1.2375    0.0000 C   0  0  0  0  0  0  0  0  0  0  0  0
    4.3177   -0.8250    0.0000 C   0  0  0  0  0  0  0  0  0  0  0  0
    4.3177    0.0000    0.0000 C   0  0  0  0  0  0  0  0  0  0  0  0
    5.0321    0.4125    0.0000 O   0  0  0  0  0  0  0  0  0  0  0  0
    2.1742   -1.2375    0.0000 C   0  0  0  0  0  0  0  0  0  0  0  0
    0.7453   -2.0625    0.0000 O   0  0  0  0  0  0  0  0  0  0  0  0
    5.7466    0.0000    0.0000 C   0  0  0  0  0  0  0  0  0  0  0  0
  1  2  1  0  0  0  0
  2  3  1  0  0  0  0
  2  4  1  0  0  0  0
  2  5  1  0  0  0  0
  5  6  4  0  0  0  0
  5  7  4  0  0  0  0
  6 12  4  0  0  0  0
  7 11  4  0  0  0  0
  8  9  1  0  0  0  0
  8 11  1  0  0  0  0
  9 10  1  0  0  0  0
  9 15  1  0  0  0  0
  9 16  1  0  0  0  0
 10 19  1  0  0  0  0
 11 12  4  0  0  0  0
 12 13  1  0  0  0  0
 13 14  2  0  0  0  0
 13 15  1  0  0  0  0
 16 17  1  0  0  0  0
 17 18  1  0  0  0  0
 18 19  1  0  0  0  0
 18 21  1  0  0  0  0
 20 21  1  0  0  0  0
 20 22  4  0  0  0  0
 20 32  4  0  0  0  0
 21 33  2  0  0  0  0
 22 23  4  0  0  0  0
 23 24  1  0  0  0  0
 23 25  4  0  0  0  0
 25 26  4  0  0  0  0
 25 27  4  0  0  0  0
 26 30  4  0  0  0  0
 27 28  4  0  0  0  0
 27 32  4  0  0  0  0
 28 29  4  0  0  0  0
 29 30  4  0  0  0  0
 30 31  1  0  0  0  0
 31 34  1  0  0  0  0
M  END
> <From>
www.bindingDB.org

> <BindingDB Reactant_set_id>
1397277

> <Ligand InChI>
InChI=1S/C27H31N3O3S/c1-16-12-18(13-17-6-7-21(33-5)28-22(16)17)24(32)30-10-8-27(9-11-30)14-19(31)23-20(15-27)34-25(29-23)26(2,3)4/h6-7,12-13H,8-11,14-15H2,1-5H3

> <Ligand InChI Key>
NAUYESQALJQLBC-UHFFFAOYSA-N

> <BindingDB MonomerID>
663895

> <BindingDB Ligand Name>
US20240109915, Example 80

> <Target Name>
Activating signal cointegrator 1 complex subunit 1

> <Target Source Organism According to Curator or DataSource>


> <Ki (nM)>


> <IC50 (nM)>
 109

> <Kd (nM)>


> <EC50 (nM)>


> <kon (M-1-s-1)>


> <koff (s-1)>


> <pH>


> <Temp C>


> <Curation/DataSource>
US Patent

> <Article DOI>


> <BindingDB Entry DOI>
10.7270/Q2348QQ2

> <PMID>


> <PubChem AID>


> <Patent Number>
US20240109915

> <Authors>
Bagley, SW; Bootsma, AN; Choi, C; Dow, RL; Edmonds, DJ; Garcia-Irizarry, CN; Gerstenberger, BS; Ingle, G; O''Brien, JG; Parikh, MD; Rescourio, GC; Schmitt, DC

> <Institution>
Pfizer

> <Link to Ligand in BindingDB>
http://www.bindingdb.org/bind/chemsearch/marvin/MolStructure.jsp?monomerid=663895

> <Link to Ligand-Target Pair in BindingDB>
http://www.bindingdb.org/jsp/dbsearch/PrimarySearch_ki.jsp?energyterm=kJ/mole&tag=pol&polymerid=735&target=Activating+signal+cointegrator+1+complex+subunit+1&column=ki&startPg=0&Increment=50&submit=Search

> <Link to Ligand-Target Pair in BindingDB>
http://www.bindingdb.org/jsp/dbsearch/PrimarySearch_ki.jsp?energyterm=kJ/mole&tag=r21&monomerid=663895&enzyme=Activating+signal+cointegrator+1+complex+subunit+1&column=ki&startPg=0&Increment=50&submit=Search

> <Ligand HET ID in PDB>


> <PDB ID(s) for Ligand-Target Complex>


> <PubChem CID>


> <PubChem SID>


> <ChEBI ID of Ligand>


> <ChEMBL ID of Ligand>


> <DrugBank ID of Ligand>


> <IUPHAR_GRAC ID of Ligand>


> <KEGG ID of Ligand>


> <ZINC ID of Ligand>


> <Number of Protein Chains in Target (bigger than 1 implies a multichain complex)>
1

> <BindingDB Target Chain Sequence>
MEVLRPQLIRIDGRNYRKNPVQEQTYQHEEDEEDFYQGSMECADEPCDAYEVEQTPQGFRSTLRAPSLLYNLIHLNTSNDCGFQKITLDCQNIYTWKSRHIVGKRGDTRKKIEMETKTSISIPKPGQDGEIVITGQHRNGVISARTRIDVLLDTFRRKQPFTHFLAFFLNEVEVQEGFLRFQEEVLAKCSMDHGVDSSIFQNPKKLHLTIGMLVLLSEEEIQQTCEMLQQCKEEFINDISGGKPLEVEMAGIEYMNDDPGMVDVLYAKVHMKDGSNRLQELVDRVLERFQASGLIVKEWNSVKLHATVMNTLFRKDPNAEGRYNLYTAEGKYIFKERESFDGRNILKSFALLPRLEYNDAISAHCNLCLPGSSDSPASASQVAGITGVSDAYSQSLPGKS

> <PDB ID(s) of Target Chain>


> <UniProt (SwissProt) Recommended Name of Target Chain>
Activating signal cointegrator 1 complex subunit 1

> <UniProt (SwissProt) Entry Name of Target Chain>
ASCC1_HUMAN

> <UniProt (SwissProt) Primary ID of Target Chain>
Q8N9N2

> <UniProt (SwissProt) Secondary ID(s) of Target Chain>
Q5SW06 Q5SW07 Q96EI8 Q9Y307

> <UniProt (SwissProt) Alternative ID(s) of Target Chain>


> <UniProt (TrEMBL) Submitted Name of Target Chain>


> <UniProt (TrEMBL) Entry Name of Target Chain>


> <UniProt (TrEMBL) Primary ID of Target Chain>


> <UniProt (TrEMBL) Secondary ID(s) of Target Chain>


> <UniProt (TrEMBL) Alternative ID(s) of Target Chain>


$$$$
00301001.cdx
  Mrv0541 06272400352D          

 33 37  0  0  0  0            999 V2000
   -5.0321    0.6188    0.0000 C   0  0  0  0  0  0  0  0  0  0  0  0
   -4.2071    0.6188    0.0000 C   0  0  0  0  0  0  0  0  0  0  0  0
   -4.6196   -0.0957    0.0000 C   0  0  0  0  0  0  0  0  0  0  0  0
   -4.6196    1.3332    0.0000 C   0  0  0  0  0  0  0  0  0  0  0  0
   -3.3821    0.6188    0.0000 C   0  0  0  0  0  0  0  0  0  0  0  0
   -2.8972    1.2862    0.0000 N   0  0  0  0  0  0  0  0  0  0  0  0
   -2.8972   -0.0487    0.0000 S   0  0  0  0  0  0  0  0  0  0  0  0
   -0.6836    0.2063    0.0000 C   0  0  0  0  0  0  0  0  0  0  0  0
   -0.6836   -0.6188    0.0000 C   0  0  0  0  0  0  0  0  0  0  0  0
    0.0308   -1.0312    0.0000 C   0  0  0  0  0  0  0  0  0  0  0  0
   -1.3981   -0.2062    0.0000 C   0  0  0  0  0  0  0  0  0  0  0  0
   -2.1126    0.2063    0.0000 C   0  0  0  0  0  0  0  0  0  0  0  0
   -2.1126    1.0313    0.0000 C   0  0  0  0  0  0  0  0  0  0  0  0
   -1.3981    1.4438    0.0000 C   0  0  0  0  0  0  0  0  0  0  0  0
   -1.3981    2.2688    0.0000 O   0  0  0  0  0  0  0  0  0  0  0  0
   -0.6836    1.0313    0.0000 C   0  0  0  0  0  0  0  0  0  0  0  0
    0.0308    0.6187    0.0000 C   0  0  0  0  0  0  0  0  0  0  0  0
    0.7453    0.2063    0.0000 C   0  0  0  0  0  0  0  0  0  0  0  0
    0.7453   -0.6188    0.0000 N   0  0  0  0  0  0  0  0  0  0  0  0
    4.3177   -1.8563    0.0000 O   0  0  0  0  0  0  0  0  0  0  0  0
    5.0321   -2.2688    0.0000 C   0  0  0  0  0  0  0  0  0  0  0  0
    2.8887   -1.0312    0.0000 C   0  0  0  0  0  0  0  0  0  0  0  0
    3.6032   -0.6188    0.0000 C   0  0  0  0  0  0  0  0  0  0  0  0
    4.3177   -1.0313    0.0000 C   0  0  0  0  0  0  0  0  0  0  0  0
    2.1742   -0.6188    0.0000 C   0  0  0  0  0  0  0  0  0  0  0  0
    1.4598   -1.0313    0.0000 C   0  0  0  0  0  0  0  0  0  0  0  0
    2.1742    0.2063    0.0000 C   0  0  0  0  0  0  0  0  0  0  0  0
    2.8887    0.6188    0.0000 N   0  0  0  0  0  0  0  0  0  0  0  0
    3.6032    0.2063    0.0000 C   0  0  0  0  0  0  0  0  0  0  0  0
    4.3177    0.6188    0.0000 C   0  0  0  0  0  0  0  0  0  0  0  0
    5.0321    0.2063    0.0000 C   0  0  0  0  0  0  0  0  0  0  0  0
    5.0321   -0.6188    0.0000 C   0  0  0  0  0  0  0  0  0  0  0  0
    1.4598   -1.8563    0.0000 O   0  0  0  0  0  0  0  0  0  0  0  0
  1  2  1  0  0  0  0
  2  3  1  0  0  0  0
  2  4  1  0  0  0  0
  2  5  1  0  0  0  0
  5  6  4  0  0  0  0
  5  7  4  0  0  0  0
  6 13  4  0  0  0  0
  7 12  4  0  0  0  0
  8  9  1  0  0  0  0
  8 11  1  0  0  0  0
  8 16  1  0  0  0  0
  8 17  1  0  0  0  0
  9 10  1  0  0  0  0
 10 19  1  0  0  0  0
 11 12  1  0  0  0  0
 12 13  4  0  0  0  0
 13 14  1  0  0  0  0
 14 15  2  0  0  0  0
 14 16  1  0  0  0  0
 17 18  1  0  0  0  0
 18 19  1  0  0  0  0
 19 26  1  0  0  0  0
 20 21  1  0  0  0  0
 20 24  1  0  0  0  0
 22 23  4  0  0  0  0
 22 25  4  0  0  0  0
 23 24  4  0  0  0  0
 23 29  4  0  0  0  0
 24 32  4  0  0  0  0
 25 26  1  0  0  0  0
 25 27  4  0  0  0  0
 26 33  2  0  0  0  0
 27 28  4  0  0  0  0
 28 29  4  0  0  0  0
 29 30  4  0  0  0  0
 30 31  4  0  0  0  0
 31 32  4  0  0  0  0
M  END
> <From>
www.bindingDB.org

> <BindingDB Reactant_set_id>
1397264

> <Ligand InChI>
InChI=1S/C26H29N3O3S/c1-25(2,3)24-28-22-19(30)13-26(14-21(22)33-24)8-10-29(11-9-26)23(31)16-12-17-18(27-15-16)6-5-7-20(17)32-4/h5-7,12,15H,8-11,13-14H2,1-4H3

> <Ligand InChI Key>
BNRGYMVQRRACOK-UHFFFAOYSA-N

> <BindingDB MonomerID>
663882

> <BindingDB Ligand Name>
US20240109915, Example 66

> <Target Name>
Activating signal cointegrator 1 complex subunit 1

> <Target Source Organism According to Curator or DataSource>


> <Ki (nM)>


> <IC50 (nM)>
 115

> <Kd (nM)>


> <EC50 (nM)>


> <kon (M-1-s-1)>


> <koff (s-1)>


> <pH>


> <Temp C>


> <Curation/DataSource>
US Patent

> <Article DOI>


> <BindingDB Entry DOI>
10.7270/Q2348QQ2

> <PMID>


> <PubChem AID>


> <Patent Number>
US20240109915

> <Authors>
Bagley, SW; Bootsma, AN; Choi, C; Dow, RL; Edmonds, DJ; Garcia-Irizarry, CN; Gerstenberger, BS; Ingle, G; O''Brien, JG; Parikh, MD; Rescourio, GC; Schmitt, DC

> <Institution>
Pfizer

> <Link to Ligand in BindingDB>
http://www.bindingdb.org/bind/chemsearch/marvin/MolStructure.jsp?monomerid=663882

> <Link to Ligand-Target Pair in BindingDB>
http://www.bindingdb.org/jsp/dbsearch/PrimarySearch_ki.jsp?energyterm=kJ/mole&tag=pol&polymerid=735&target=Activating+signal+cointegrator+1+complex+subunit+1&column=ki&startPg=0&Increment=50&submit=Search

> <Link to Ligand-Target Pair in BindingDB>
http://www.bindingdb.org/jsp/dbsearch/PrimarySearch_ki.jsp?energyterm=kJ/mole&tag=r21&monomerid=663882&enzyme=Activating+signal+cointegrator+1+complex+subunit+1&column=ki&startPg=0&Increment=50&submit=Search

> <Ligand HET ID in PDB>


> <PDB ID(s) for Ligand-Target Complex>


> <PubChem CID>


> <PubChem SID>


> <ChEBI ID of Ligand>


> <ChEMBL ID of Ligand>


> <DrugBank ID of Ligand>


> <IUPHAR_GRAC ID of Ligand>


> <KEGG ID of Ligand>


> <ZINC ID of Ligand>


> <Number of Protein Chains in Target (bigger than 1 implies a multichain complex)>
1

> <BindingDB Target Chain Sequence>
MEVLRPQLIRIDGRNYRKNPVQEQTYQHEEDEEDFYQGSMECADEPCDAYEVEQTPQGFRSTLRAPSLLYNLIHLNTSNDCGFQKITLDCQNIYTWKSRHIVGKRGDTRKKIEMETKTSISIPKPGQDGEIVITGQHRNGVISARTRIDVLLDTFRRKQPFTHFLAFFLNEVEVQEGFLRFQEEVLAKCSMDHGVDSSIFQNPKKLHLTIGMLVLLSEEEIQQTCEMLQQCKEEFINDISGGKPLEVEMAGIEYMNDDPGMVDVLYAKVHMKDGSNRLQELVDRVLERFQASGLIVKEWNSVKLHATVMNTLFRKDPNAEGRYNLYTAEGKYIFKERESFDGRNILKSFALLPRLEYNDAISAHCNLCLPGSSDSPASASQVAGITGVSDAYSQSLPGKS

> <PDB ID(s) of Target Chain>


> <UniProt (SwissProt) Recommended Name of Target Chain>
Activating signal cointegrator 1 complex subunit 1

> <UniProt (SwissProt) Entry Name of Target Chain>
ASCC1_HUMAN

> <UniProt (SwissProt) Primary ID of Target Chain>
Q8N9N2

> <UniProt (SwissProt) Secondary ID(s) of Target Chain>
Q5SW06 Q5SW07 Q96EI8 Q9Y307

> <UniProt (SwissProt) Alternative ID(s) of Target Chain>


> <UniProt (TrEMBL) Submitted Name of Target Chain>


> <UniProt (TrEMBL) Entry Name of Target Chain>


> <UniProt (TrEMBL) Primary ID of Target Chain>


> <UniProt (TrEMBL) Secondary ID(s) of Target Chain>


> <UniProt (TrEMBL) Alternative ID(s) of Target Chain>


$$$$
00309001.cdx
  Mrv0541 06272400352D          

 33 37  0  0  0  0            999 V2000
   -5.0321    0.4125    0.0000 C   0  0  0  0  0  0  0  0  0  0  0  0
   -4.2071    0.4125    0.0000 C   0  0  0  0  0  0  0  0  0  0  0  0
   -4.6196   -0.3020    0.0000 C   0  0  0  0  0  0  0  0  0  0  0  0
   -4.6196    1.1270    0.0000 C   0  0  0  0  0  0  0  0  0  0  0  0
   -3.3821    0.4125    0.0000 C   0  0  0  0  0  0  0  0  0  0  0  0
   -2.8972    1.0799    0.0000 N   0  0  0  0  0  0  0  0  0  0  0  0
   -2.8972   -0.2549    0.0000 S   0  0  0  0  0  0  0  0  0  0  0  0
   -1.3981   -0.4125    0.0000 C   0  0  0  0  0  0  0  0  0  0  0  0
   -0.6836    0.0000    0.0000 C   0  0  0  0  0  0  0  0  0  0  0  0
   -0.6836   -0.8250    0.0000 C   0  0  0  0  0  0  0  0  0  0  0  0
   -2.1126    0.0000    0.0000 C   0  0  0  0  0  0  0  0  0  0  0  0
   -2.1126    0.8250    0.0000 C   0  0  0  0  0  0  0  0  0  0  0  0
   -1.3981    1.2375    0.0000 C   0  0  0  0  0  0  0  0  0  0  0  0
   -1.3981    2.0625    0.0000 O   0  0  0  0  0  0  0  0  0  0  0  0
   -0.6836    0.8250    0.0000 C   0  0  0  0  0  0  0  0  0  0  0  0
    0.0308    0.4125    0.0000 C   0  0  0  0  0  0  0  0  0  0  0  0
    0.7453    0.0000    0.0000 C   0  0  0  0  0  0  0  0  0  0  0  0
    0.7453   -0.8250    0.0000 N   0  0  0  0  0  0  0  0  0  0  0  0
    0.0308   -1.2375    0.0000 C   0  0  0  0  0  0  0  0  0  0  0  0
    1.4598    0.4125    0.0000 N   0  0  0  0  0  0  0  0  0  0  0  0
    1.4598    1.2375    0.0000 C   0  0  0  0  0  0  0  0  0  0  0  0
    1.4598   -1.2375    0.0000 C   0  0  0  0  0  0  0  0  0  0  0  0
    1.4598   -2.0625    0.0000 O   0  0  0  0  0  0  0  0  0  0  0  0
    2.1742   -0.8250    0.0000 C   0  0  0  0  0  0  0  0  0  0  0  0
    2.1742    0.0000    0.0000 C   0  0  0  0  0  0  0  0  0  0  0  0
    2.8887    0.4125    0.0000 N   0  0  0  0  0  0  0  0  0  0  0  0
    2.8887   -1.2375    0.0000 C   0  0  0  0  0  0  0  0  0  0  0  0
    3.6032   -0.8250    0.0000 C   0  0  0  0  0  0  0  0  0  0  0  0
    3.6032    0.0000    0.0000 C   0  0  0  0  0  0  0  0  0  0  0  0
    4.3177    0.4125    0.0000 C   0  0  0  0  0  0  0  0  0  0  0  0
    5.0321    0.0000    0.0000 C   0  0  0  0  0  0  0  0  0  0  0  0
    5.0321   -0.8250    0.0000 C   0  0  0  0  0  0  0  0  0  0  0  0
    4.3177   -1.2375    0.0000 C   0  0  0  0  0  0  0  0  0  0  0  0
  1  2  1  0  0  0  0
  2  3  1  0  0  0  0
  2  4  1  0  0  0  0
  2  5  1  0  0  0  0
  5  6  4  0  0  0  0
  5  7  4  0  0  0  0
  6 12  4  0  0  0  0
  7 11  4  0  0  0  0
  8  9  1  0  0  0  0
  8 11  1  0  0  0  0
  9 10  1  0  0  0  0
  9 15  1  0  0  0  0
  9 16  1  0  0  0  0
 10 19  1  0  0  0  0
 11 12  4  0  0  0  0
 12 13  1  0  0  0  0
 13 14  2  0  0  0  0
 13 15  1  0  0  0  0
 16 17  1  0  0  0  0
 17 18  1  0  0  0  0
 18 19  1  0  0  0  0
 18 22  1  0  0  0  0
 20 21  1  0  0  0  0
 20 25  1  0  0  0  0
 22 23  2  0  0  0  0
 22 24  1  0  0  0  0
 24 25  4  0  0  0  0
 24 27  4  0  0  0  0
 25 26  4  0  0  0  0
 26 29  4  0  0  0  0
 27 28  4  0  0  0  0
 28 29  4  0  0  0  0
 28 33  4  0  0  0  0
 29 30  4  0  0  0  0
 30 31  4  0  0  0  0
 31 32  4  0  0  0  0
 32 33  4  0  0  0  0
M  END
> <From>
www.bindingDB.org

> <BindingDB Reactant_set_id>
1397271

> <Ligand InChI>
InChI=1S/C26H30N4O2S/c1-25(2,3)24-29-21-19(31)14-26(15-20(21)33-24)9-11-30(12-10-26)23(32)17-13-16-7-5-6-8-18(16)28-22(17)27-4/h5-8,13H,9-12,14-15H2,1-4H3,(H,27,28)

> <Ligand InChI Key>
SGLXBEDYLKOHGY-UHFFFAOYSA-N

> <BindingDB MonomerID>
663889

> <BindingDB Ligand Name>
US20240109915, Example 74

> <Target Name>
Activating signal cointegrator 1 complex subunit 1

> <Target Source Organism According to Curator or DataSource>


> <Ki (nM)>


> <IC50 (nM)>
 189

> <Kd (nM)>


> <EC50 (nM)>


> <kon (M-1-s-1)>


> <koff (s-1)>


> <pH>


> <Temp C>


> <Curation/DataSource>
US Patent

> <Article DOI>


> <BindingDB Entry DOI>
10.7270/Q2348QQ2

> <PMID>


> <PubChem AID>


> <Patent Number>
US20240109915

> <Authors>
Bagley, SW; Bootsma, AN; Choi, C; Dow, RL; Edmonds, DJ; Garcia-Irizarry, CN; Gerstenberger, BS; Ingle, G; O''Brien, JG; Parikh, MD; Rescourio, GC; Schmitt, DC

> <Institution>
Pfizer

> <Link to Ligand in BindingDB>
http://www.bindingdb.org/bind/chemsearch/marvin/MolStructure.jsp?monomerid=663889

> <Link to Ligand-Target Pair in BindingDB>
http://www.bindingdb.org/jsp/dbsearch/PrimarySearch_ki.jsp?energyterm=kJ/mole&tag=pol&polymerid=735&target=Activating+signal+cointegrator+1+complex+subunit+1&column=ki&startPg=0&Increment=50&submit=Search

> <Link to Ligand-Target Pair in BindingDB>
http://www.bindingdb.org/jsp/dbsearch/PrimarySearch_ki.jsp?energyterm=kJ/mole&tag=r21&monomerid=663889&enzyme=Activating+signal+cointegrator+1+complex+subunit+1&column=ki&startPg=0&Increment=50&submit=Search

> <Ligand HET ID in PDB>


> <PDB ID(s) for Ligand-Target Complex>


> <PubChem CID>


> <PubChem SID>


> <ChEBI ID of Ligand>


> <ChEMBL ID of Ligand>


> <DrugBank ID of Ligand>


> <IUPHAR_GRAC ID of Ligand>


> <KEGG ID of Ligand>


> <ZINC ID of Ligand>


> <Number of Protein Chains in Target (bigger than 1 implies a multichain complex)>
1

> <BindingDB Target Chain Sequence>
MEVLRPQLIRIDGRNYRKNPVQEQTYQHEEDEEDFYQGSMECADEPCDAYEVEQTPQGFRSTLRAPSLLYNLIHLNTSNDCGFQKITLDCQNIYTWKSRHIVGKRGDTRKKIEMETKTSISIPKPGQDGEIVITGQHRNGVISARTRIDVLLDTFRRKQPFTHFLAFFLNEVEVQEGFLRFQEEVLAKCSMDHGVDSSIFQNPKKLHLTIGMLVLLSEEEIQQTCEMLQQCKEEFINDISGGKPLEVEMAGIEYMNDDPGMVDVLYAKVHMKDGSNRLQELVDRVLERFQASGLIVKEWNSVKLHATVMNTLFRKDPNAEGRYNLYTAEGKYIFKERESFDGRNILKSFALLPRLEYNDAISAHCNLCLPGSSDSPASASQVAGITGVSDAYSQSLPGKS

> <PDB ID(s) of Target Chain>


> <UniProt (SwissProt) Recommended Name of Target Chain>
Activating signal cointegrator 1 complex subunit 1

> <UniProt (SwissProt) Entry Name of Target Chain>
ASCC1_HUMAN

> <UniProt (SwissProt) Primary ID of Target Chain>
Q8N9N2

> <UniProt (SwissProt) Secondary ID(s) of Target Chain>
Q5SW06 Q5SW07 Q96EI8 Q9Y307

> <UniProt (SwissProt) Alternative ID(s) of Target Chain>


> <UniProt (TrEMBL) Submitted Name of Target Chain>


> <UniProt (TrEMBL) Entry Name of Target Chain>


> <UniProt (TrEMBL) Primary ID of Target Chain>


> <UniProt (TrEMBL) Secondary ID(s) of Target Chain>


> <UniProt (TrEMBL) Alternative ID(s) of Target Chain>


$$$$
00307001.cdx
  Mrv0541 06272400352D          

 32 36  0  0  0  0            999 V2000
   -5.0321    0.4125    0.0000 C   0  0  0  0  0  0  0  0  0  0  0  0
   -4.2071    0.4125    0.0000 C   0  0  0  0  0  0  0  0  0  0  0  0
   -4.6196   -0.3020    0.0000 C   0  0  0  0  0  0  0  0  0  0  0  0
   -4.6196    1.1270    0.0000 C   0  0  0  0  0  0  0  0  0  0  0  0
   -3.3821    0.4125    0.0000 C   0  0  0  0  0  0  0  0  0  0  0  0
   -2.8972    1.0799    0.0000 N   0  0  0  0  0  0  0  0  0  0  0  0
   -2.8972   -0.2549    0.0000 S   0  0  0  0  0  0  0  0  0  0  0  0
   -1.3981   -0.4125    0.0000 C   0  0  0  0  0  0  0  0  0  0  0  0
   -0.6836    0.0000    0.0000 C   0  0  0  0  0  0  0  0  0  0  0  0
   -0.6836   -0.8250    0.0000 C   0  0  0  0  0  0  0  0  0  0  0  0
   -2.1126    0.0000    0.0000 C   0  0  0  0  0  0  0  0  0  0  0  0
   -2.1126    0.8250    0.0000 C   0  0  0  0  0  0  0  0  0  0  0  0
   -1.3981    1.2375    0.0000 C   0  0  0  0  0  0  0  0  0  0  0  0
   -1.3981    2.0625    0.0000 O   0  0  0  0  0  0  0  0  0  0  0  0
   -0.6836    0.8250    0.0000 C   0  0  0  0  0  0  0  0  0  0  0  0
    0.0308    0.4125    0.0000 C   0  0  0  0  0  0  0  0  0  0  0  0
    0.7453    0.0000    0.0000 C   0  0  0  0  0  0  0  0  0  0  0  0
    0.7453   -0.8250    0.0000 N   0  0  0  0  0  0  0  0  0  0  0  0
    0.0308   -1.2375    0.0000 C   0  0  0  0  0  0  0  0  0  0  0  0
    1.4598   -1.2375    0.0000 C   0  0  0  0  0  0  0  0  0  0  0  0
    1.4598   -2.0625    0.0000 O   0  0  0  0  0  0  0  0  0  0  0  0
    2.1742   -0.8250    0.0000 C   0  0  0  0  0  0  0  0  0  0  0  0
    2.1742    0.0000    0.0000 C   0  0  0  0  0  0  0  0  0  0  0  0
    2.8887    0.4125    0.0000 C   0  0  0  0  0  0  0  0  0  0  0  0
    3.6032    0.0000    0.0000 C   0  0  0  0  0  0  0  0  0  0  0  0
    4.3177    0.4125    0.0000 N   0  0  0  0  0  0  0  0  0  0  0  0
    3.6032   -0.8250    0.0000 C   0  0  0  0  0  0  0  0  0  0  0  0
    4.3177   -1.2375    0.0000 C   0  0  0  0  0  0  0  0  0  0  0  0
    5.0321   -0.8250    0.0000 C   0  0  0  0  0  0  0  0  0  0  0  0
    5.0321    0.0000    0.0000 C   0  0  0  0  0  0  0  0  0  0  0  0
    4.3177   -2.0625    0.0000 O   0  0  0  0  0  0  0  0  0  0  0  0
    2.8887   -1.2375    0.0000 C   0  0  0  0  0  0  0  0  0  0  0  0
  1  2  1  0  0  0  0
  2  3  1  0  0  0  0
  2  4  1  0  0  0  0
  2  5  1  0  0  0  0
  5  6  4  0  0  0  0
  5  7  4  0  0  0  0
  6 12  4  0  0  0  0
  7 11  4  0  0  0  0
  8  9  1  0  0  0  0
  8 11  1  0  0  0  0
  9 10  1  0  0  0  0
  9 15  1  0  0  0  0
  9 16  1  0  0  0  0
 10 19  1  0  0  0  0
 11 12  4  0  0  0  0
 12 13  1  0  0  0  0
 13 14  2  0  0  0  0
 13 15  1  0  0  0  0
 16 17  1  0  0  0  0
 17 18  1  0  0  0  0
 18 19  1  0  0  0  0
 18 20  1  0  0  0  0
 20 21  2  0  0  0  0
 20 22  1  0  0  0  0
 22 23  4  0  0  0  0
 22 32  4  0  0  0  0
 23 24  4  0  0  0  0
 24 25  4  0  0  0  0
 25 26  4  0  0  0  0
 25 27  4  0  0  0  0
 26 30  4  0  0  0  0
 27 28  4  0  0  0  0
 27 32  4  0  0  0  0
 28 29  4  0  0  0  0
 28 31  1  0  0  0  0
 29 30  4  0  0  0  0
M  END
> <From>
www.bindingDB.org

> <BindingDB Reactant_set_id>
1397269

> <Ligand InChI>
InChI=1S/C25H27N3O3S/c1-24(2,3)23-27-21-19(30)13-25(14-20(21)32-23)7-10-28(11-8-25)22(31)15-4-5-17-16(12-15)18(29)6-9-26-17/h4-6,9,12H,7-8,10-11,13-14H2,1-3H3,(H,26,29)

> <Ligand InChI Key>
VFQSSDVUCSIEPE-UHFFFAOYSA-N

> <BindingDB MonomerID>
663887

> <BindingDB Ligand Name>
US20240109915, Example 72

> <Target Name>
Activating signal cointegrator 1 complex subunit 1

> <Target Source Organism According to Curator or DataSource>


> <Ki (nM)>


> <IC50 (nM)>
 10000

> <Kd (nM)>


> <EC50 (nM)>


> <kon (M-1-s-1)>


> <koff (s-1)>


> <pH>


> <Temp C>


> <Curation/DataSource>
US Patent

> <Article DOI>


> <BindingDB Entry DOI>
10.7270/Q2348QQ2

> <PMID>


> <PubChem AID>


> <Patent Number>
US20240109915

> <Authors>
Bagley, SW; Bootsma, AN; Choi, C; Dow, RL; Edmonds, DJ; Garcia-Irizarry, CN; Gerstenberger, BS; Ingle, G; O''Brien, JG; Parikh, MD; Rescourio, GC; Schmitt, DC

> <Institution>
Pfizer

> <Link to Ligand in BindingDB>
http://www.bindingdb.org/bind/chemsearch/marvin/MolStructure.jsp?monomerid=663887

> <Link to Ligand-Target Pair in BindingDB>
http://www.bindingdb.org/jsp/dbsearch/PrimarySearch_ki.jsp?energyterm=kJ/mole&tag=pol&polymerid=735&target=Activating+signal+cointegrator+1+complex+subunit+1&column=ki&startPg=0&Increment=50&submit=Search

> <Link to Ligand-Target Pair in BindingDB>
http://www.bindingdb.org/jsp/dbsearch/PrimarySearch_ki.jsp?energyterm=kJ/mole&tag=r21&monomerid=663887&enzyme=Activating+signal+cointegrator+1+complex+subunit+1&column=ki&startPg=0&Increment=50&submit=Search

> <Ligand HET ID in PDB>


> <PDB ID(s) for Ligand-Target Complex>


> <PubChem CID>


> <PubChem SID>


> <ChEBI ID of Ligand>


> <ChEMBL ID of Ligand>


> <DrugBank ID of Ligand>


> <IUPHAR_GRAC ID of Ligand>


> <KEGG ID of Ligand>


> <ZINC ID of Ligand>


> <Number of Protein Chains in Target (bigger than 1 implies a multichain complex)>
1

> <BindingDB Target Chain Sequence>
MEVLRPQLIRIDGRNYRKNPVQEQTYQHEEDEEDFYQGSMECADEPCDAYEVEQTPQGFRSTLRAPSLLYNLIHLNTSNDCGFQKITLDCQNIYTWKSRHIVGKRGDTRKKIEMETKTSISIPKPGQDGEIVITGQHRNGVISARTRIDVLLDTFRRKQPFTHFLAFFLNEVEVQEGFLRFQEEVLAKCSMDHGVDSSIFQNPKKLHLTIGMLVLLSEEEIQQTCEMLQQCKEEFINDISGGKPLEVEMAGIEYMNDDPGMVDVLYAKVHMKDGSNRLQELVDRVLERFQASGLIVKEWNSVKLHATVMNTLFRKDPNAEGRYNLYTAEGKYIFKERESFDGRNILKSFALLPRLEYNDAISAHCNLCLPGSSDSPASASQVAGITGVSDAYSQSLPGKS

> <PDB ID(s) of Target Chain>


> <UniProt (SwissProt) Recommended Name of Target Chain>
Activating signal cointegrator 1 complex subunit 1

> <UniProt (SwissProt) Entry Name of Target Chain>
ASCC1_HUMAN

> <UniProt (SwissProt) Primary ID of Target Chain>
Q8N9N2

> <UniProt (SwissProt) Secondary ID(s) of Target Chain>
Q5SW06 Q5SW07 Q96EI8 Q9Y307

> <UniProt (SwissProt) Alternative ID(s) of Target Chain>


> <UniProt (TrEMBL) Submitted Name of Target Chain>


> <UniProt (TrEMBL) Entry Name of Target Chain>


> <UniProt (TrEMBL) Primary ID of Target Chain>


> <UniProt (TrEMBL) Secondary ID(s) of Target Chain>


> <UniProt (TrEMBL) Alternative ID(s) of Target Chain>


$$$$
00283001.cdx
  Mrv0541 06272400352D          

 32 36  0  0  0  0            999 V2000
   -4.6196    1.1270    0.0000 C   0  0  0  0  0  0  0  0  0  0  0  0
   -4.2071    0.4125    0.0000 C   0  0  0  0  0  0  0  0  0  0  0  0
   -5.0321    0.4125    0.0000 C   0  0  0  0  0  0  0  0  0  0  0  0
   -3.3821    0.4125    0.0000 C   0  0  0  0  0  0  0  0  0  0  0  0
   -2.8972    1.0799    0.0000 N   0  0  0  0  0  0  0  0  0  0  0  0
   -2.8972   -0.2549    0.0000 S   0  0  0  0  0  0  0  0  0  0  0  0
   -4.6196   -0.3020    0.0000 C   0  0  0  0  0  0  0  0  0  0  0  0
   -0.6836    0.0000    0.0000 C   0  0  0  0  0  0  0  0  0  0  0  0
   -0.6836   -0.8250    0.0000 C   0  0  0  0  0  0  0  0  0  0  0  0
    0.0308   -1.2375    0.0000 C   0  0  0  0  0  0  0  0  0  0  0  0
   -1.3981   -0.4125    0.0000 C   0  0  0  0  0  0  0  0  0  0  0  0
   -2.1126    0.0000    0.0000 C   0  0  0  0  0  0  0  0  0  0  0  0
   -2.1126    0.8250    0.0000 C   0  0  0  0  0  0  0  0  0  0  0  0
   -1.3981    1.2375    0.0000 C   0  0  0  0  0  0  0  0  0  0  0  0
   -1.3981    2.0625    0.0000 O   0  0  0  0  0  0  0  0  0  0  0  0
   -0.6836    0.8250    0.0000 C   0  0  0  0  0  0  0  0  0  0  0  0
    0.0308    0.4125    0.0000 C   0  0  0  0  0  0  0  0  0  0  0  0
    0.7453    0.0000    0.0000 C   0  0  0  0  0  0  0  0  0  0  0  0
    0.7453   -0.8250    0.0000 N   0  0  0  0  0  0  0  0  0  0  0  0
    1.4598   -1.2375    0.0000 C   0  0  0  0  0  0  0  0  0  0  0  0
    1.4598   -2.0625    0.0000 O   0  0  0  0  0  0  0  0  0  0  0  0
    2.1742   -0.8250    0.0000 C   0  0  0  0  0  0  0  0  0  0  0  0
    2.1742    0.0000    0.0000 C   0  0  0  0  0  0  0  0  0  0  0  0
    2.8887    0.4125    0.0000 C   0  0  0  0  0  0  0  0  0  0  0  0
    2.8887    1.2375    0.0000 C   0  0  0  0  0  0  0  0  0  0  0  0
    3.6032    0.0000    0.0000 C   0  0  0  0  0  0  0  0  0  0  0  0
    3.6032   -0.8250    0.0000 C   0  0  0  0  0  0  0  0  0  0  0  0
    4.3177   -1.2375    0.0000 C   0  0  0  0  0  0  0  0  0  0  0  0
    5.0321   -0.8250    0.0000 C   0  0  0  0  0  0  0  0  0  0  0  0
    5.0321    0.0000    0.0000 C   0  0  0  0  0  0  0  0  0  0  0  0
    4.3177    0.4125    0.0000 N   0  0  0  0  0  0  0  0  0  0  0  0
    2.8887   -1.2375    0.0000 C   0  0  0  0  0  0  0  0  0  0  0  0
  1  2  1  0  0  0  0
  2  3  1  0  0  0  0
  2  4  1  0  0  0  0
  2  7  1  0  0  0  0
  4  5  4  0  0  0  0
  4  6  4  0  0  0  0
  5 13  4  0  0  0  0
  6 12  4  0  0  0  0
  8  9  1  0  0  0  0
  8 11  1  0  0  0  0
  8 16  1  0  0  0  0
  8 17  1  0  0  0  0
  9 10  1  0  0  0  0
 10 19  1  0  0  0  0
 11 12  1  0  0  0  0
 12 13  4  0  0  0  0
 13 14  1  0  0  0  0
 14 15  2  0  0  0  0
 14 16  1  0  0  0  0
 17 18  1  0  0  0  0
 18 19  1  0  0  0  0
 19 20  1  0  0  0  0
 20 21  2  0  0  0  0
 20 22  1  0  0  0  0
 22 23  4  0  0  0  0
 22 32  4  0  0  0  0
 23 24  4  0  0  0  0
 24 25  1  0  0  0  0
 24 26  4  0  0  0  0
 26 31  4  0  0  0  0
 26 27  4  0  0  0  0
 27 28  4  0  0  0  0
 27 32  4  0  0  0  0
 28 29  4  0  0  0  0
 29 30  4  0  0  0  0
 30 31  4  0  0  0  0
M  END
> <From>
www.bindingDB.org

> <BindingDB Reactant_set_id>
1397247

> <Ligand InChI>
InChI=1S/C26H29N3O2S/c1-16-12-18(13-17-6-5-9-27-21(16)17)23(31)29-10-7-26(8-11-29)14-19(30)22-20(15-26)32-24(28-22)25(2,3)4/h5-6,9,12-13H,7-8,10-11,14-15H2,1-4H3

> <Ligand InChI Key>
OZQBSYXSPQXKDU-UHFFFAOYSA-N

> <BindingDB MonomerID>
663865

> <BindingDB Ligand Name>
US20240109915, Example 48

> <Target Name>
Activating signal cointegrator 1 complex subunit 1

> <Target Source Organism According to Curator or DataSource>


> <Ki (nM)>


> <IC50 (nM)>
 10000

> <Kd (nM)>


> <EC50 (nM)>


> <kon (M-1-s-1)>


> <koff (s-1)>


> <pH>


> <Temp C>


> <Curation/DataSource>
US Patent

> <Article DOI>


> <BindingDB Entry DOI>
10.7270/Q2348QQ2

> <PMID>


> <PubChem AID>


> <Patent Number>
US20240109915

> <Authors>
Bagley, SW; Bootsma, AN; Choi, C; Dow, RL; Edmonds, DJ; Garcia-Irizarry, CN; Gerstenberger, BS; Ingle, G; O''Brien, JG; Parikh, MD; Rescourio, GC; Schmitt, DC

> <Institution>
Pfizer

> <Link to Ligand in BindingDB>
http://www.bindingdb.org/bind/chemsearch/marvin/MolStructure.jsp?monomerid=663865

> <Link to Ligand-Target Pair in BindingDB>
http://www.bindingdb.org/jsp/dbsearch/PrimarySearch_ki.jsp?energyterm=kJ/mole&tag=pol&polymerid=735&target=Activating+signal+cointegrator+1+complex+subunit+1&column=ki&startPg=0&Increment=50&submit=Search

> <Link to Ligand-Target Pair in BindingDB>
http://www.bindingdb.org/jsp/dbsearch/PrimarySearch_ki.jsp?energyterm=kJ/mole&tag=r21&monomerid=663865&enzyme=Activating+signal+cointegrator+1+complex+subunit+1&column=ki&startPg=0&Increment=50&submit=Search

> <Ligand HET ID in PDB>


> <PDB ID(s) for Ligand-Target Complex>


> <PubChem CID>


> <PubChem SID>


> <ChEBI ID of Ligand>


> <ChEMBL ID of Ligand>


> <DrugBank ID of Ligand>


> <IUPHAR_GRAC ID of Ligand>


> <KEGG ID of Ligand>


> <ZINC ID of Ligand>


> <Number of Protein Chains in Target (bigger than 1 implies a multichain complex)>
1

> <BindingDB Target Chain Sequence>
MEVLRPQLIRIDGRNYRKNPVQEQTYQHEEDEEDFYQGSMECADEPCDAYEVEQTPQGFRSTLRAPSLLYNLIHLNTSNDCGFQKITLDCQNIYTWKSRHIVGKRGDTRKKIEMETKTSISIPKPGQDGEIVITGQHRNGVISARTRIDVLLDTFRRKQPFTHFLAFFLNEVEVQEGFLRFQEEVLAKCSMDHGVDSSIFQNPKKLHLTIGMLVLLSEEEIQQTCEMLQQCKEEFINDISGGKPLEVEMAGIEYMNDDPGMVDVLYAKVHMKDGSNRLQELVDRVLERFQASGLIVKEWNSVKLHATVMNTLFRKDPNAEGRYNLYTAEGKYIFKERESFDGRNILKSFALLPRLEYNDAISAHCNLCLPGSSDSPASASQVAGITGVSDAYSQSLPGKS

> <PDB ID(s) of Target Chain>


> <UniProt (SwissProt) Recommended Name of Target Chain>
Activating signal cointegrator 1 complex subunit 1

> <UniProt (SwissProt) Entry Name of Target Chain>
ASCC1_HUMAN

> <UniProt (SwissProt) Primary ID of Target Chain>
Q8N9N2

> <UniProt (SwissProt) Secondary ID(s) of Target Chain>
Q5SW06 Q5SW07 Q96EI8 Q9Y307

> <UniProt (SwissProt) Alternative ID(s) of Target Chain>


> <UniProt (TrEMBL) Submitted Name of Target Chain>


> <UniProt (TrEMBL) Entry Name of Target Chain>


> <UniProt (TrEMBL) Primary ID of Target Chain>


> <UniProt (TrEMBL) Secondary ID(s) of Target Chain>


> <UniProt (TrEMBL) Alternative ID(s) of Target Chain>


$$$$
